OpenDSS Model (08.13.2020)/Load.dss
// This file is to define loads with a variety of phase configurations.

//***************************************************************************************//
//                                             Feeder A
//***************************************************************************************//
//----------------------------------------------------------------------------------------------------------------------//
New  Load.Load_1003  phases=3  conn=wye  bus1=T_bus1003_L.1.2.3.0  kV=0.208  kW=15.290000000000001    Kvar=3.832035216364534 
! Load name, number of phses, connection, bus, kV rating, active power, reactive power

//----------------------------------------------------------------------------------------------------------------------//
New  Load.Load_1004  phases=3  conn=wye  bus1=T_bus1004_L.1.2.3.0  kV=0.208  kW=6.892000000000000    Kvar=3.337947946542479

//----------------------------------------------------------------------------------------------------------------------//
New  Load.Load_1005  phases=3  conn=wye  bus1=T_bus1005_L.1.2.3.0  kV=0.208  kW=4.916000000000000    Kvar=1.942927521885772

//----------------------------------------------------------------------------------------------------------------------// 
New  Load.Load_1006  phases=1  conn=delta  bus1=T_bus1006_L.1.2  kV=0.208  kW=5.040000000000000    Kvar=2.296291839688011

//----------------------------------------------------------------------------------------------------------------------// 
New  Load.Load_1007  phases=1  conn=delta  bus1=T_bus1007_L.1.2  kV=0.208  kW=4.163000000000000    Kvar=2.016232922439980

//----------------------------------------------------------------------------------------------------------------------//
New  Load.Load_1008  phases=3  conn=wye  bus1=T_bus1008_L.1.2.3.0  kV=0.208  kW=14.096000000000000    Kvar=6.422327335762342

//----------------------------------------------------------------------------------------------------------------------//
New  Load.Load_1009  phases=3  conn=wye  bus1=T_bus1009_L.1.2.3.0  kV=0.208  kW=17.081000000000000    Kvar=6.750843165445662

//----------------------------------------------------------------------------------------------------------------------//
New  Load.Load_1010  phases=3  conn=wye  bus1=T_bus1010_L.1.2.3.0  kV=0.208  kW=7.136000000000000    Kvar=2.820327663990413

//----------------------------------------------------------------------------------------------------------------------// 
New  Load.Load_1011  phases=2  conn=wye  bus1=T_bus1011_L.1.2  kV=0.208  kW=3.125000000000000    Kvar=1.027137828683947

//----------------------------------------------------------------------------------------------------------------------// 
New  Load.Load_1012  phases=2  conn=wye  bus1=T_bus1012_L.1.2  kV=0.208  kW=3.083000000000000    Kvar=1.118979580058769 

//----------------------------------------------------------------------------------------------------------------------//
New  Load.Load_1013  phases=3  conn=wye  bus1=T_bus1013_L.1.2.3.0  kV=0.208  kW=1.537000000000    Kvar=0.448291666666667 

//----------------------------------------------------------------------------------------------------------------------// 
New  Load.Load_1014  phases=2  conn=wye  bus1=T_bus1014_L.1.2  kV=0.208  kW=0.458000000000000    Kvar=0.195107182990382

//----------------------------------------------------------------------------------------------------------------------// 
New  Load.Load_1015  phases=2  conn=wye  bus1=T_bus1015_L.1.2  kV=0.208  kW=0.793000000000000   Kvar=0.161025517882765 

//----------------------------------------------------------------------------------------------------------------------// 
New  Load.Load_1016  phases=2  conn=wye  bus1=T_bus1016_L.1.2  kV=0.208  kW=3.083000000000000    Kvar=1.493165049215099 

//----------------------------------------------------------------------------------------------------------------------// 
New  Load.Load_1017  phases=2  conn=wye  bus1=T_bus1017_L.1.2  kV=0.208  kW=2.131000000000000    Kvar=0.621541666666667







//***************************************************************************************//
//                                             Feeder B
//***************************************************************************************//
//----------------------------------------------------------------------------------------------------------------------//
New  Load.Load_2002  phases=3  conn=wye  bus1=T_bus2002_L.1.2.3.0  kV=0.208  kW=27.940000000000000    Kvar=10.140865866637050

//----------------------------------------------------------------------------------------------------------------------//
New  Load.Load_2003  phases=3  conn=wye  bus1=T_bus2003_L.1.2.3.0  kV=0.208  kW=14.286000000000001    Kvar=3.580409097513652 

//----------------------------------------------------------------------------------------------------------------------//
New  Load.Load_2005  phases=3  conn=wye  bus1=T_bus2005_L.1.2.3.0  kV=0.208  kW=8.947000000000000    Kvar=3.536080662797397 

//----------------------------------------------------------------------------------------------------------------------// 
New  Load.Load_2008  phases=2  conn=wye  bus1=T_bus2008_L.1.2  kV=0.208  kW=2.067000000000000    Kvar=0.941753022348238

//----------------------------------------------------------------------------------------------------------------------// 
New  Load.Load_2009  phases=2  conn=wye  bus1=T_bus2009_L.1.2  kV=0.208  kW=1.246000000000000    Kvar=0.492450710388461

//----------------------------------------------------------------------------------------------------------------------//
New  Load.Load_2010  phases=3  conn=wye  bus1=T_bus2010_L.1.2.3.0  kV=0.208  kW=2.290000000000000    Kvar=0.905065912351184

//----------------------------------------------------------------------------------------------------------------------//
New  Load.Load_2011  phases=3  conn=wye  bus1=T_bus2011_L.1.2.3.0  kV=0.208  kW=5.367999999999999    Kvar=1.764376276600136 

//----------------------------------------------------------------------------------------------------------------------// 
New  Load.Load_2014  phases=2  conn=wye  bus1=T_bus2014_L.1.2  kV=0.208  kW=2.816000000000000    Kvar=0.821333333333334

//----------------------------------------------------------------------------------------------------------------------// 
New  Load.Load_2015  phases=2  conn=wye  bus1=T_bus2015_L.1.2  kV=0.208  kW=1.490000000000000    Kvar=0.634737342042945

//----------------------------------------------------------------------------------------------------------------------//
New  Load.Load_2016  phases=2  conn=wye  bus1=T_bus2016_L.1.2  kV=0.208  kW=1.640000000000000    Kvar=0.333016203439767

//----------------------------------------------------------------------------------------------------------------------// 
New  Load.Load_2017  phases=2  conn=wye  bus1=T_bus2017_L.1.2  kV=0.208  kW=5.125000000000000    Kvar=2.482150787293994

//----------------------------------------------------------------------------------------------------------------------// 
New  Load.Load_2018  phases=2  conn=wye  bus1=T_bus2018_L.1.2  kV=0.208  kW=2.809000000000000    Kvar=0.819291666666667

//----------------------------------------------------------------------------------------------------------------------// 
New  Load.Load_2020  phases=2  conn=wye  bus1=T_bus2020_L.1.2  kV=0.208  kW=3.086000000000000    Kvar=1.014319148581971

//----------------------------------------------------------------------------------------------------------------------// 
New  Load.Load_2022  phases=2  conn=wye  bus1=T_bus2022_L.1.2  kV=0.208  kW=2.728000000000000    Kvar=1.242913519577161

//----------------------------------------------------------------------------------------------------------------------// 
New  Load.Load_2023  phases=2  conn=wye  bus1=T_bus2023_L.1.2  kV=0.208  kW=0.728000000000000    Kvar=0.147826704941555

//----------------------------------------------------------------------------------------------------------------------// 
New  Load.Load_2024  phases=2  conn=wye  bus1=T_bus2024_L.1.2  kV=0.208  kW=2.549000000000000    Kvar=0.363212828405741

//----------------------------------------------------------------------------------------------------------------------// 
New  Load.Load_2025  phases=2  conn=wye  bus1=T_bus2025_L.1.2  kV=0.208  kW=2.701000000000000    Kvar=1.067503506227313

//----------------------------------------------------------------------------------------------------------------------// 
New  Load.Load_2028  phases=2  conn=wye  bus1=T_bus2028_L.1.2  kV=0.208  kW=0.000000000000000    Kvar=0.0000000000000000

//----------------------------------------------------------------------------------------------------------------------//
New  Load.Load_2029  phases=3  conn=wye  bus1=T_bus2029_L.1.2.3.0  kV=0.208  kW=9.427000000000000    Kvar=1.914233993796757 

//----------------------------------------------------------------------------------------------------------------------//
New  Load.Load_2030  phases=3  conn=wye  bus1=T_bus2030_L.1.2.3.0  kV=0.208  kW=5.331000000000000    Kvar=2.581921140890592 

//----------------------------------------------------------------------------------------------------------------------// 
New  Load.Load_2031  phases=2  conn=wye  bus1=T_bus2031_L.1.2  kV=0.208  kW=3.279000000000000    Kvar=1.588092181763319

//----------------------------------------------------------------------------------------------------------------------//
New  Load.Load_2032  phases=3  conn=wye  bus1=T_bus2032_L.1.2.3.0  kV=0.208  kW=2.217000000000000    Kvar=1.010095041386571 

//----------------------------------------------------------------------------------------------------------------------//
New  Load.Load_2034  phases=3  conn=wye  bus1=T_bus2034_L.1.2.3.0  kV=0.208  kW=3.621000000000000    Kvar=1.753730341617864 

//----------------------------------------------------------------------------------------------------------------------//
New  Load.Load_2035  phases=3  conn=wye  bus1=T_bus2035_L.1.2.3.0  kV=0.208  kW=3.931000000000000    Kvar=1.426762481093423 

//----------------------------------------------------------------------------------------------------------------------//
New  Load.Load_2037  phases=3  conn=wye  bus1=T_bus2037_L.1.2.3.0  kV=0.208  kW=3.941000000000000    Kvar=1.295344058509899 

//----------------------------------------------------------------------------------------------------------------------//
New  Load.Load_2040  phases=3  conn=wye  bus1=T_bus2040_L.1.2.3.0  kV=0.208  kW=81.759999999999990    Kvar=23.846666666666675 

//----------------------------------------------------------------------------------------------------------------------//
New  Load.Load_2041  phases=3  conn=wye  bus1=T_bus2041_L.1.2.3.0  kV=0.208  kW=1.919000000000000    Kvar=0.389669569756654 

//----------------------------------------------------------------------------------------------------------------------//
New  Load.Load_2042  phases=3  conn=wye  bus1=T_bus2042_L.1.2.3.0  kV=0.208  kW=4.223000000000000    Kvar=2.045292248730251 

//----------------------------------------------------------------------------------------------------------------------//
New  Load.Load_2043  phases=3  conn=wye  bus1=T_bus2043_L.1.2.3.0  kV=0.208  kW=6.509000000000000    Kvar=1.631309170916727 

//----------------------------------------------------------------------------------------------------------------------//
New  Load.Load_2045  phases=2  conn=wye  bus1=T_bus2045_L.1.2  kV=0.208  kW=2.175000000000000    Kvar=0.545106382968794

//----------------------------------------------------------------------------------------------------------------------// 
New  Load.Load_2046  phases=2  conn=wye  bus1=T_bus2046_L.1.2  kV=0.208  kW=6.621000000000000    Kvar=2.820534189037812

//----------------------------------------------------------------------------------------------------------------------// 
New  Load.Load_2047  phases=2  conn=wye  bus1=T_bus2047_L.1.2  kV=0.208  kW=5.512000000000001    Kvar=1.381437417436319

//----------------------------------------------------------------------------------------------------------------------// 
New  Load.Load_2048  phases=2  conn=wye  bus1=T_bus2048_L.1.2  kV=0.208  kW=3.764000000000000    Kvar=1.714929064401919

//----------------------------------------------------------------------------------------------------------------------// 
New  Load.Load_2049  phases=2  conn=wye  bus1=T_bus2049_L.1.2  kV=0.208  kW=3.538000000000000    Kvar=1.284122528137505

//----------------------------------------------------------------------------------------------------------------------// 
New  Load.Load_2050  phases=2  conn=wye  bus1=T_bus2050_L.1.2  kV=0.208  kW=3.747000000000000    Kvar=0.533918582987961

//----------------------------------------------------------------------------------------------------------------------// 
New  Load.Load_2051  phases=2  conn=wye  bus1=T_bus2051_L.1.2  kV=0.208  kW=5.778000000000001    Kvar=2.461417692834991

//----------------------------------------------------------------------------------------------------------------------//
New  Load.Load_2052  phases=3  conn=wye  bus1=T_bus2052_L.1.2.3.0  kV=0.208  kW=40.029000000000000    Kvar=17.052282593716143 

//----------------------------------------------------------------------------------------------------------------------//
New  Load.Load_2053  phases=3  conn=wye  bus1=T_bus2053_L.1.2.3.0  kV=0.208  kW=4.280000000000000    Kvar=1.950025609893787 

//----------------------------------------------------------------------------------------------------------------------// 
New  Load.Load_2054  phases=2  conn=wye  bus1=T_bus2054_L.1.2  kV=0.208  kW=7.159000000000000    Kvar=3.467261948534187

//----------------------------------------------------------------------------------------------------------------------// 
New  Load.Load_2055  phases=2  conn=wye  bus1=T_bus2055_L.1.2  kV=0.208  kW=4.260000000000000    Kvar=1.242500000000000

//----------------------------------------------------------------------------------------------------------------------// 
New  Load.Load_2056  phases=2  conn=wye  bus1=T_bus2056_L.1.2  kV=0.208  kW=4.723000000000001    Kvar=2.011989574811295

//----------------------------------------------------------------------------------------------------------------------//
New  Load.Load_2058  phases=3  conn=wye  bus1=T_bus2058_L.1.2.3.0  kV=0.208  kW=31.480000000000004    Kvar=11.425714297843033 

//----------------------------------------------------------------------------------------------------------------------// 
New  Load.Load_2059  phases=2  conn=wye  bus1=T_bus2059_L.1.2  kV=0.208  kW=2.635000000000000    Kvar=1.276188746247742

//----------------------------------------------------------------------------------------------------------------------// 
New  Load.Load_2060  phases=2  conn=wye  bus1=T_bus2060_L.1.2  kV=0.208  kW=1.946000000000000    Kvar=0.639619268678067





//***************************************************************************************//
//                                             Feeder C
//***************************************************************************************//
//-----------------------------------------------------------------------------------------//
New  Load.Load_3002  phases=3  conn=wye  bus1=T_bus3002_L.1.2.3.0  kV=0.208  kW=19.645    Kvar=7.13018289 

//-----------------------------------------------------------------------------------------//
New  Load.Load_3004  phases=3  conn=wye  bus1=T_bus3004_L.1.2.3.0  kV=0.208  kW=3.117    Kvar=1.509632001 

//-----------------------------------------------------------------------------------------//
New  Load.Load_3006  phases=3  conn=wye  bus1=T_bus3006_L.1.2.3.0  kV=0.208  kW=4.033    Kvar=1.837489085 

//-----------------------------------------------------------------------------------------//
New  Load.Load_3007  phases=3  conn=wye  bus1=T_bus3007_L.1.2.3.0  kV=0.208  kW=9.425    Kvar=4.564735838 

//-----------------------------------------------------------------------------------------// 
New  Load.Load_3009  phases=2  conn=wye  bus1=T_bus3009_L.1.2  kV=0.208  kW=4.064    Kvar=1.606195575

//-----------------------------------------------------------------------------------------//
New  Load.Load_3010  phases=2  conn=wye  bus1=T_bus3010_L.1.2  kV=0.208  kW=4.935    Kvar=1.950436802

//-----------------------------------------------------------------------------------------// 
New  Load.Load_3011  phases=2  conn=wye  bus1=T_bus3011_L.1.2  kV=0.208  kW=7.419    Kvar=2.438507376

//-----------------------------------------------------------------------------------------// 
New  Load.Load_3012  phases=2  conn=wye  bus1=T_bus3012_L.1.2  kV=0.208  kW=3.763    Kvar=1.365786623

//-----------------------------------------------------------------------------------------// 
New  Load.Load_3013  phases=2  conn=wye  bus1=T_bus3013_L.1.2  kV=0.208  kW=2.539    Kvar=0.740541667

//-----------------------------------------------------------------------------------------// 
New  Load.Load_3014  phases=2  conn=wye  bus1=T_bus3014_L.1.2  kV=0.208  kW=3.105    Kvar=1.322724461

//-----------------------------------------------------------------------------------------// 
New  Load.Load_3016  phases=2  conn=wye  bus1=T_bus3016_L.1.2  kV=0.208  kW=6.246    Kvar=3.025075867

//-----------------------------------------------------------------------------------------// 
New  Load.Load_3017  phases=2  conn=wye  bus1=T_bus3017_L.1.2  kV=0.208  kW=8.493    Kvar=2.477125

//-----------------------------------------------------------------------------------------// 
New  Load.Load_3018  phases=2  conn=wye  bus1=T_bus3018_L.1.2  kV=0.208  kW=5.351    Kvar=1.94215366

//-----------------------------------------------------------------------------------------// 
New  Load.Load_3019  phases=2  conn=wye  bus1=T_bus3019_L.1.2  kV=0.208  kW=5.403    Kvar=1.77588022

//-----------------------------------------------------------------------------------------// 
New  Load.Load_3020  phases=2  conn=wye  bus1=T_bus3020_L.1.2  kV=0.208  kW=5.984    Kvar=2.726390946

//-----------------------------------------------------------------------------------------// 
New  Load.Load_3021  phases=2  conn=wye  bus1=T_bus3021_L.1.2  kV=0.208  kW=7.73    Kvar=3.521892048

//-----------------------------------------------------------------------------------------// 
New  Load.Load_3023  phases=2  conn=wye  bus1=T_bus3023_L.1.2  kV=0.208  kW=4.344    Kvar=0.618986476

//-----------------------------------------------------------------------------------------// 
New  Load.Load_3024  phases=2  conn=wye  bus1=T_bus3024_L.1.2  kV=0.208  kW=5.02    Kvar=1.984030952

//-----------------------------------------------------------------------------------------// 
New  Load.Load_3025  phases=2  conn=wye  bus1=T_bus3025_L.1.2  kV=0.208  kW=6.546    Kvar=1.90925

//-----------------------------------------------------------------------------------------// 
New  Load.Load_3026  phases=2  conn=wye  bus1=T_bus3026_L.1.2  kV=0.208  kW=10.273    Kvar=2.086021621

//-----------------------------------------------------------------------------------------// 
New  Load.Load_3027  phases=2  conn=wye  bus1=T_bus3027_L.1.2  kV=0.208  kW=7.116    Kvar=1.444965429

//-----------------------------------------------------------------------------------------// 
New  Load.Load_3028  phases=2  conn=wye  bus1=T_bus3028_L.1.2  kV=0.208  kW=11.008    Kvar=5.33141773

//-----------------------------------------------------------------------------------------// 
New  Load.Load_3029  phases=2  conn=wye  bus1=T_bus3029_L.1.2  kV=0.208  kW=2.494    Kvar=1.207899329

//-----------------------------------------------------------------------------------------//
New  Load.Load_3031  phases=3  conn=wye  bus1=T_bus3031_L.1.2.3.0  kV=0.208  kW=4.271    Kvar=0.86726354 

//-----------------------------------------------------------------------------------------//
New  Load.Load_3032  phases=3  conn=wye  bus1=T_bus3032_L.1.2.3.0  kV=0.208  kW=5.709    Kvar=2.764994897 

//-----------------------------------------------------------------------------------------//
New  Load.Load_3033  phases=3  conn=wye  bus1=T_bus3033_L.1.2.3.0  kV=0.208  kW=9.779    Kvar=3.549303053

//-----------------------------------------------------------------------------------------//
New  Load.Load_3034  phases=3  conn=wye  bus1=T_bus3034_L.1.2.3.0  kV=0.208  kW=4.776    Kvar=0.680543142 

//-----------------------------------------------------------------------------------------//
New  Load.Load_3035  phases=3  conn=wye  bus1=T_bus3035_L.1.2.3.0  kV=0.208  kW=10.893    Kvar=3.580355958 

//-----------------------------------------------------------------------------------------//
New  Load.Load_3036  phases=3  conn=wye  bus1=T_bus3036_L.1.2.3.0  kV=0.208  kW=4.026    Kvar=1.17425 

//-----------------------------------------------------------------------------------------//
New  Load.Load_3037  phases=3  conn=wye  bus1=T_bus3037_L.1.2.3.0  kV=0.208  kW=7.303    Kvar=2.886330287 

//-----------------------------------------------------------------------------------------//
New  Load.Load_3038  phases=3  conn=wye  bus1=T_bus3038_L.1.2.3.0  kV=0.208  kW=6.13    Kvar=1.787916667 

//-----------------------------------------------------------------------------------------//
New  Load.Load_3039  phases=3  conn=wye  bus1=T_bus3039_L.1.2.3.0  kV=0.208  kW=4.966    Kvar=1.008389309 

//-----------------------------------------------------------------------------------------// 
New  Load.Load_3041  phases=2  conn=wye  bus1=T_bus3041_L.1.2  kV=0.208  kW=5.252    Kvar=1.316275275

//-----------------------------------------------------------------------------------------// 
New  Load.Load_3042  phases=2  conn=wye  bus1=T_bus3042_L.1.2  kV=0.208  kW=7.719    Kvar=1.09989793

//-----------------------------------------------------------------------------------------// 
New  Load.Load_3043  phases=2  conn=wye  bus1=T_bus3043_L.1.2  kV=0.208  kW=6.856    Kvar=1.718275569

//-----------------------------------------------------------------------------------------// 
New  Load.Load_3044  phases=2  conn=wye  bus1=T_bus3044_L.1.2  kV=0.208  kW=4.119    Kvar=1.754686652

//-----------------------------------------------------------------------------------------// 
New  Load.Load_3045  phases=2  conn=wye  bus1=T_bus3045_L.1.2  kV=0.208  kW=4.434    Kvar=1.11126515

//-----------------------------------------------------------------------------------------//
New  Load.Load_3047  phases=3  conn=wye  bus1=T_bus3047_L.1.2.3.0  kV=0.208  kW=10.213    Kvar=3.706824019 

//-----------------------------------------------------------------------------------------//
New  Load.Load_3048  phases=3  conn=wye  bus1=T_bus3048_L.1.2.3.0  kV=0.208  kW=2.868    Kvar=0.408667867 

//-----------------------------------------------------------------------------------------//
New  Load.Load_3049  phases=3  conn=wye  bus1=T_bus3049_L.1.2.3.0  kV=0.208  kW=1.671    Kvar=0.711843019 

//-----------------------------------------------------------------------------------------//
New  Load.Load_3050  phases=3  conn=wye  bus1=T_bus3050_L.1.2.3.0  kV=0.208  kW=2.646    Kvar=1.12719128 

//-----------------------------------------------------------------------------------------//
New  Load.Load_3051  phases=3  conn=wye  bus1=T_bus3051_L.1.2.3.0  kV=0.208  kW=2.412    Kvar=1.098939666 

//-----------------------------------------------------------------------------------------//
New  Load.Load_3052  phases=3  conn=wye  bus1=T_bus3052_L.1.2.3.0  kV=0.208  kW=6.101    Kvar=2.954849162 

//-----------------------------------------------------------------------------------------//
New  Load.Load_3054  phases=3  conn=wye  bus1=T_bus3054_L.1.2.3.0  kV=0.208  kW=2.471    Kvar=1.052641592 

//-----------------------------------------------------------------------------------------// 
New  Load.Load_3056  phases=2  conn=wye  bus1=T_bus3056_L.1.2  kV=0.208  kW=3.796    Kvar=1.377764024

//-----------------------------------------------------------------------------------------// 
New  Load.Load_3057  phases=2  conn=wye  bus1=T_bus3057_L.1.2  kV=0.208  kW=3.679    Kvar=1.781821024

//-----------------------------------------------------------------------------------------// 
New  Load.Load_3058  phases=2  conn=wye  bus1=T_bus3058_L.1.2  kV=0.208  kW=3.475    Kvar=1.142177265

//-----------------------------------------------------------------------------------------// 
New  Load.Load_3059  phases=2  conn=wye  bus1=T_bus3059_L.1.2  kV=0.208  kW=4.366    Kvar=1.989208367

//-----------------------------------------------------------------------------------------// 
New  Load.Load_3060  phases=2  conn=wye  bus1=T_bus3060_L.1.2  kV=0.208  kW=3.63    Kvar=1.193123302

//-----------------------------------------------------------------------------------------// 
New  Load.Load_3061  phases=2  conn=wye  bus1=T_bus3061_L.1.2  kV=0.208  kW=1.283    Kvar=0.374208333

//-----------------------------------------------------------------------------------------// 
New  Load.Load_3062  phases=2  conn=wye  bus1=T_bus3062_L.1.2  kV=0.208  kW=0.929    Kvar=0.423264905

//-----------------------------------------------------------------------------------------// 
New  Load.Load_3063  phases=2  conn=wye  bus1=T_bus3063_L.1.2  kV=0.208  kW=6.523    Kvar=2.367532858

//-----------------------------------------------------------------------------------------// 
New  Load.Load_3064  phases=2  conn=wye  bus1=T_bus3064_L.1.2  kV=0.208  kW=7.792    Kvar=2.272666667

//-----------------------------------------------------------------------------------------// 
New  Load.Load_3065  phases=2  conn=wye  bus1=T_bus3065_L.1.2  kV=0.208  kW=2.813    Kvar=1.020982666

//-----------------------------------------------------------------------------------------// 
New  Load.Load_3066  phases=2  conn=wye  bus1=T_bus3066_L.1.2  kV=0.208  kW=3.257    Kvar=1.577437095

//-----------------------------------------------------------------------------------------// 
New  Load.Load_3067  phases=2  conn=wye  bus1=T_bus3067_L.1.2  kV=0.208  kW=6.204    Kvar=2.039156189

//-----------------------------------------------------------------------------------------//
New  Load.Load_3070  phases=3  conn=wye  bus1=T_bus3070_L.1.2.3.0  kV=0.208  kW=0.845    Kvar=0.120405979 

//-----------------------------------------------------------------------------------------//
New  Load.Load_3071  phases=3  conn=wye  bus1=T_bus3071_L.1.2.3.0  kV=0.208  kW=2.163    Kvar=0.71094372 

//-----------------------------------------------------------------------------------------//
New  Load.Load_3072  phases=3  conn=wye  bus1=T_bus3072_L.1.2.3.0  kV=0.208  kW=1.964    Kvar=0.279854843 

//-----------------------------------------------------------------------------------------//
New  Load.Load_3073  phases=3  conn=wye  bus1=T_bus3073_L.1.2.3.0  kV=0.208  kW=2.297    Kvar=1.046544118 

//-----------------------------------------------------------------------------------------//
New  Load.Load_3074  phases=3  conn=wye  bus1=T_bus3074_L.1.2.3.0  kV=0.208  kW=4.791    Kvar=2.182844088 

//-----------------------------------------------------------------------------------------//
New  Load.Load_3077  phases=3  conn=wye  bus1=T_bus3077_L.1.2.3.0  kV=0.208  kW=41.037    Kvar=16.21886019 

//-----------------------------------------------------------------------------------------//
New  Load.Load_3078  phases=3  conn=wye  bus1=T_bus3078_L.1.2.3.0  kV=0.208  kW=4.012    Kvar=1.827921203 

//-----------------------------------------------------------------------------------------//
New  Load.Load_3081  phases=3  conn=wye  bus1=T_bus3081_L.1.2.3.0  kV=0.208  kW=1.581    Kvar=0.39623595 

...