OpenDSS Model (08.13.2020)/240_bus_test_system_Losses.Txt

LOSSES REPORT

Power Delivery Element Loss Report

Element                  kW Losses    % of Power   kvar Losses

"Transformer.SUB_XFMR"          1.83594,     0.16     9.18798
"Transformer.SUB_REGULATOR_A"   0.00111,     0.00     0.00912249
"Transformer.SUB_REGULATOR_B"   0.00079,      0.0     0.0075176
"Transformer.SUB_REGULATOR_C"   0.00088,      0.0     0.00798163
"Transformer.T_1003"            0.05203,     0.34     0.0829805
"Transformer.T_1004"            0.01715,     0.25     0.0145092
"Transformer.T_1005"            0.00816,     0.17     0.00694186
"Transformer.T_1006"            0.00791,     0.16     0.0166489
"Transformer.T_1007"            0.02222,     0.53     0.0314248
"Transformer.T_1008"            0.13177,     0.93     0.0905093
"Transformer.T_1009"            0.09945,     0.58     0.0837551
"Transformer.T_1010"            0.03200,     0.45     0.0220158
"Transformer.T_1011"            0.00556,     0.18     0.00791601
"Transformer.T_1012"            0.00329,     0.11     0.00485962
"Transformer.T_1013"            0.00138,     0.09     0.000995786
"Transformer.T_1014"            0.00013,      0.0     0.000231217
"Transformer.T_1015"            0.00034,      0.0     0.000525588
"Transformer.T_1016"            0.00249,     0.08     0.0041723
"Transformer.T_1017"            0.00151,     0.07     0.00226614
"Transformer.T_2002"            0.01361,     0.05     0.0351882
"Transformer.T_2003"            0.06376,     0.44     0.0537292
"Transformer.T_2005"            0.05047,     0.56     0.0346938
"Transformer.T_2008"            0.00265,     0.13     0.00379996
"Transformer.T_2009"            0.00092,     0.07     0.00135395
"Transformer.T_2010"            0.00328,     0.14     0.00229586
"Transformer.T_2011"            0.01732,     0.32     0.0119386
"Transformer.T_2014"            0.00263,     0.09     0.00390634
"Transformer.T_2015"            0.00135,     0.09     0.00195431
"Transformer.T_2016"            0.00144,     0.09     0.0020825
"Transformer.T_2017"            0.01675,     0.33     0.0237232
"Transformer.T_2018"            0.00440,     0.16     0.00627188
"Transformer.T_2020"            0.00543,     0.18     0.0077221
"Transformer.T_2022"            0.00462,     0.17     0.00657942
"Transformer.T_2023"            0.00059,      0.0     0.000484728
"Transformer.T_2024"            0.00340,     0.13     0.00486019
"Transformer.T_2025"            0.00433,     0.16     0.00617711
"Transformer.T_2028"            0.00000,      0.0     5.19181E-005
"Transformer.T_2029"            0.02712,     0.29     0.0228991
"Transformer.T_2030"            0.01026,     0.19     0.00871312
"Transformer.T_2031"            0.00684,     0.21     0.00972019
"Transformer.T_2032"            0.00321,     0.14     0.00224924
"Transformer.T_2034"            0.00877,     0.24     0.00606639
"Transformer.T_2035"            0.00511,     0.13     0.00437659
"Transformer.T_2037"            0.00932,     0.24     0.0064471
"Transformer.T_2040"            0.42599,     0.52     1.06528
"Transformer.T_2041"            0.00207,     0.11     0.00146912
"Transformer.T_2042"            0.00644,     0.15     0.00549409
"Transformer.T_2043"            0.01318,     0.20     0.0111681
"Transformer.T_2045"            0.00539,     0.25     0.00418551
"Transformer.T_2046"            0.01103,     0.17     0.018145
"Transformer.T_2047"            0.00686,     0.12     0.0113349
"Transformer.T_2048"            0.00363,     0.10     0.00605147
"Transformer.T_2049"            0.00434,     0.12     0.00638588
"Transformer.T_2050"            0.00439,     0.12     0.00645324
"Transformer.T_2051"            0.01211,     0.21     0.017685
"Transformer.T_2052"            0.18084,     0.45     0.382453
"Transformer.T_2053"            0.00209,     0.05     0.00464241
"Transformer.T_2054"            0.01950,     0.27     0.028424
"Transformer.T_2055"            0.00419,     0.10     0.00695453
"Transformer.T_2056"            0.01362,     0.29     0.0193041
"Transformer.T_2058"            0.06525,     0.21     0.163445
"Transformer.T_2059"            0.00441,     0.17     0.00628818
"Transformer.T_2060"            0.00216,     0.11     0.00309963
"Transformer.T_3002"            0.24190,     1.22     0.166115
"Transformer.T_3004"            0.00650,     0.21     0.00450564
"Transformer.T_3006"            0.01067,     0.26     0.0073713
"Transformer.T_3007"            0.03226,     0.34     0.0272249
"Transformer.T_3009"            0.00588,     0.14     0.00862907
"Transformer.T_3010"            0.00868,     0.18     0.0126988
"Transformer.T_3011"            0.01884,     0.25     0.0274688
"Transformer.T_3012"            0.00342,     0.09     0.00569633
"Transformer.T_3013"            0.00360,     0.14     0.00513481
"Transformer.T_3014"            0.00349,     0.11     0.00515261
"Transformer.T_3016"            0.01481,     0.24     0.0216139
"Transformer.T_3017"            0.00847,     0.10     0.0171389
"Transformer.T_3018"            0.00997,     0.19     0.0145715
"Transformer.T_3019"            0.00995,     0.18     0.0145442
"Transformer.T_3020"            0.00468,     0.08     0.00957497
"Transformer.T_3021"            0.02227,     0.29     0.0324487
"Transformer.T_3023"            0.00411,     0.09     0.0068241
"Transformer.T_3024"            0.00899,     0.18     0.0131454
"Transformer.T_3025"            0.00994,     0.15     0.0163643
"Transformer.T_3026"            0.03401,     0.33     0.0495272
"Transformer.T_3027"            0.00573,     0.08     0.0116583
"Transformer.T_3028"            0.01629,     0.15     0.0327829
"Transformer.T_3029"            0.00236,     0.09     0.00351411
"Transformer.T_3031"            0.01032,     0.24     0.00713283
"Transformer.T_3032"            0.02194,     0.38     0.0151058
"Transformer.T_3033"            0.05931,     0.60     0.0407646
"Transformer.T_3034"            0.01266,     0.26     0.00873691
"Transformer.T_3035"            0.07211,     0.66     0.0495528
"Transformer.T_3036"            0.00956,     0.24     0.00660745
"Transformer.T_3037"            0.03367,     0.46     0.0231628
"Transformer.T_3038"            0.02222,     0.36     0.0152993
"Transformer.T_3039"            0.01397,     0.28     0.00963463
"Transformer.T_3041"            0.00624,     0.12     0.0103222
"Transformer.T_3042"            0.01873,     0.24     0.0273043
"Transformer.T_3043"            0.01539,     0.22     0.0224524
"Transformer.T_3044"            0.00616,     0.15     0.00903985
"Transformer.T_3045"            0.00642,     0.14     0.00941653
"Transformer.T_3047"            0.06471,     0.63     0.0444678
"Transformer.T_3048"            0.00455,     0.16     0.00317157
"Transformer.T_3049"            0.00179,     0.11     0.00127367
"Transformer.T_3050"            0.00449,     0.17     0.00312761
"Transformer.T_3051"            0.00381,     0.16     0.00266264
"Transformer.T_3052"            0.02506,     0.41     0.0172513
"Transformer.T_3054"            0.00391,     0.16     0.00273304
"Transformer.T_3056"            0.00501,     0.13     0.00735801
"Transformer.T_3057"            0.00513,     0.14     0.00753994
"Transformer.T_3058"            0.00411,     0.12     0.00604895
"Transformer.T_3059"            0.00708,     0.16     0.0103642
"Transformer.T_3060"            0.00448,     0.12     0.00659466
"Transformer.T_3061"            0.00055,      0.0     0.000873246
"Transformer.T_3062"            0.00032,      0.0     0.000541846
"Transformer.T_3063"            0.01483,     0.23     0.0216346
"Transformer.T_3064"            0.02030,     0.26     0.0295915
"Transformer.T_3065"            0.00275,     0.10     0.00407292
"Transformer.T_3066"            0.00402,     0.12     0.00592491
"Transformer.T_3067"            0.01313,     0.21     0.0191619
"Transformer.T_3070"            0.00039,      0.0     0.000317354
"Transformer.T_3071"            0.00281,     0.13     0.00197699
"Transformer.T_3072"            0.00213,     0.11     0.00151132
"Transformer.T_3073"            0.00346,     0.15     0.00242011
"Transformer.T_3074"            0.01510,     0.31     0.0104095
"Transformer.T_3077"            0.06057,     0.15     0.223857
"Transformer.T_3078"            0.01058,     0.26     0.00730636
"Transformer.T_3081"            0.00144,     0.09     0.00103537
"Transformer.T_3083"            0.00471,     0.12     0.00693133
"Transformer.T_3084"            0.00169,     0.08     0.00253855
"Transformer.T_3085"            0.01505,     0.22     0.0219557
"Transformer.T_3086"            0.00197,     0.08     0.00293975
"Transformer.T_3087"            0.00614,     0.15     0.00900181
"Transformer.T_3088"            0.02281,     0.27     0.033244
"Transformer.T_3089"            0.00024,      0.0     0.000431425
"Transformer.T_3090"            0.00330,     0.10     0.00486843
"Transformer.T_3091"            0.00361,     0.14     0.00515914
"Transformer.T_3093"            0.00678,     0.16     0.00993839
"Transformer.T_3094"            0.00306,     0.10     0.00452908
"Transformer.T_3095"            0.01219,     0.21     0.0177992
"Transformer.T_3096"            0.00276,     0.10     0.00409004
"Transformer.T_3097"            0.04335,     0.39     0.0630989
"Transformer.T_3098"            0.01050,     0.16     0.0172903
"Transformer.T_3099"            0.00613,     0.14     0.00898288
"Transformer.T_3101"            0.00216,     0.09     0.00322415
"Transformer.T_3102"            0.02256,     0.27     0.0328706
"Transformer.T_3103"            0.01116,     0.17     0.01836
"Transformer.T_3104"            0.00918,     0.11     0.0185608
"Transformer.T_3105"            0.00298,     0.10     0.00441593
"Transformer.T_3106"            0.01211,     0.12     0.0244326
"Transformer.T_3108"            0.00158,     0.07     0.00237885
"Transformer.T_3109"            0.07353,     0.53     0.106968
"Transformer.T_3110"            0.02008,     0.21     0.0329543
"Transformer.T_3111"            0.02206,     0.23     0.0361993
"Transformer.T_3112"            0.01909,     0.20     0.0313407
"Transformer.T_3114"            0.00989,     0.19     0.0144603
"Transformer.T_3115"            0.01320,     0.17     0.021697
"Transformer.T_3116"            0.01798,     0.24     0.0262172
"Transformer.T_3117"            0.00516,     0.14     0.00757294
"Transformer.T_3120"            0.00322,     0.10     0.00476368
"Transformer.T_3121"            0.00264,     0.09     0.00391444
"Transformer.T_3122"            0.00658,     0.16     0.00963761
"Transformer.T_3123"            0.00979,     0.19     0.0143121
"Transformer.T_3124"            0.00403,     0.12     0.00593917
"Transformer.T_3125"            0.00076,      0.0     0.000619296
"Transformer.T_3126"            0.01421,     0.23     0.0207373
"Transformer.T_3127"            0.01212,     0.20     0.0177016
"Transformer.T_3128"            0.00463,     0.13     0.00680739
"Transformer.T_3129"            0.00131,     0.07     0.00198911
"Transformer.T_3130"            0.00428,     0.12     0.00629335
"Transformer.T_3131"            0.00469,     0.13     0.0068987
"Transformer.T_3132"            0.03401,     0.29     0.0557537
"Transformer.T_3134"            0.00775,     0.13     0.0127822
"Transformer.T_3135"            0.01686,     0.24     0.0245914
"Transformer.T_3136"            0.02369,     0.25     0.0388702
"Transformer.T_3137"            0.04244,     0.31     0.0695536
"Transformer.T_3138"            0.01844,     0.22     0.0302848
"Transformer.T_3139"            0.00000,      0.0     7.72379E-005
"Transformer.T_3141"            0.00776,     0.16     0.0113542
"Transformer.T_3142"            0.00529,     0.13     0.00776208
"Transformer.T_3143"            0.02041,     0.26     0.0297467
"Transformer.T_3144"            0.00030,      0.0     0.000263071
"Transformer.T_3145"            0.00121,     0.07     0.00183178
"Transformer.T_3146"            0.00097,     0.06     0.00148835
"Transformer.T_3147"            0.02652,     0.32     0.0386245
"Transformer.T_3148"            0.02584,     0.26     0.0423918
"Transformer.T_3149"            0.00150,     0.07     0.00225409
"Transformer.T_3150"            0.00372,     0.14     0.00530928
"Transformer.T_3151"            0.00163,     0.10     0.00235055
"Transformer.T_3152"            0.00239,     0.12     0.00342496
"Transformer.T_3153"            0.01363,     0.23     0.0198949
"Transformer.T_3154"            0.01237,     0.26     0.0175301
"Transformer.T_3155"            0.00125,     0.08     0.00181549
"Transformer.T_3157"            0.02404,     0.25     0.0394489
"Transformer.T_3158"            0.00965,     0.15     0.0159002
"Transformer.T_3159"            0.02477,     0.25     0.0406319
"Transformer.T_3160"            0.01039,     0.24     0.0147345
"Transformer.T_3161"            0.00397,     0.14     0.00566536
"Transformer.T_3162"            0.00758,     0.20     0.0107683
"Line.L_1001_1002"              0.01476,     0.02     -12.0057
"Line.L_1002_1003"              0.00010,      0.0     -1.09436
"Line.L_1002_1004"              0.00172,     0.00     -0.0276915
"Line.L_1004_1005"              0.00087,      0.0     -0.0174368
"Line.L_1005_1006"              0.00199,     0.00     -0.0469879
"Line.L_1006_1007"              0.00003,      0.0     -0.0583997
"Line.L_1006_1008"              0.00061,      0.0     -0.0207749
"Line.L_1008_1009"              0.00076,      0.0     -0.050718
"Line.L_1009_1010"              0.00000,      0.0     -0.00812204
"Line.L_1009_1011"              0.00001,      0.0     -0.176461
"Line.L_1011_1012"              0.00001,      0.0     -0.176461
"Line.L_1012_1013"              0.00005,      0.0     -0.899954
"Line.L_1013_1014"              0.00000,      0.0     -0.203994
"Line.L_1014_1015"              0.00000,      0.0     -0.123573
"Line.L_1013_1016"              0.00007,      0.0     -0.458936
"Line.L_1016_1017"              0.00000,      0.0     -0.0696301
"Line.L_2001_2002"              0.09657,     0.03     -5.55741
"Line.L_2002_2003"              0.05555,     0.02     0.035507
"Line.L_2003_2004"              0.03152,     0.01     0.01674
"Line.L_2004_2005"              0.01252,     0.00     0.00665293
"Line.L_2005_2006"              0.00538,     0.00     0.00244382
"Line.L_2006_2007"              0.00001,      0.0     -0.00321931
"Line.L_2007_2008"              0.00000,      0.0     -0.122351
"Line.L_2007_2009"              0.00000,      0.0     -0.00212174
"Line.L_2006_2010"              0.00618,     0.00     0.00264156
"Line.L_2010_2011"              0.00984,     0.00     0.00399385
"Line.L_2011_2012"              0.01732,     0.01     0.00612982
"Line.L_2013_2014"              0.00010,      0.0     -0.0126782
"Line.L_2014_2015"              0.00000,      0.0     -0.117526
"Line.L_2014_2016"              0.00005,      0.0     -0.0122576
"Line.L_2016_2017"              0.00006,      0.0     -0.511195
"Line.L_2017_2018"              0.00002,      0.0     -1.3133
"Line.L_2013_2019"              0.00138,     0.00     0.000239266
"Line.L_2019_2020"              0.00003,      0.0     -0.628748
"Line.L_2019_2021"              0.00128,     0.00     0.000172288
"Line.L_2021_2022"              0.00008,      0.0     -0.20086
"Line.L_2022_2023"              0.00003,      0.0     -0.146991
"Line.L_2023_2024"              0.00006,      0.0     -0.39982
"Line.L_2024_2025"              0.00001,      0.0     -0.324382
"Line.L_2026_2027"              0.01033,     0.00     0.000305174
"Line.L_2027_2028"              0.00012,      0.0     -0.837206
"Line.L_2028_2029"              0.00006,      0.0     -0.384817
"Line.L_2029_2030"              0.00002,      0.0     -0.48471
"Line.L_2030_2031"              0.00002,      0.0     -0.719727
"Line.L_2027_2032"              0.00360,     0.00     -0.000881295
"Line.L_2032_2033"              0.00684,     0.00     -0.0019414
"Line.L_2033_2034"              0.00000,      0.0     -0.00888602
"Line.L_2033_2035"              0.00367,     0.00     -0.00128248
"Line.L_2035_2036"              0.00354,     0.00     -0.00150178
"Line.L_2036_2037"              0.00177,     0.00     -0.000750777
"Line.L_2037_2038"              0.00410,     0.00     -0.00206048
"Line.L_2038_2039"              0.01851,     0.01     -0.0061005
"Line.L_2039_2040"              0.00102,     0.00     -0.0130689
"Line.L_2040_2041"              0.00000,      0.0     -0.0183925
"Line.L_2039_2042"              0.00081,      0.0     -0.102454
"Line.L_2042_2043"              0.00345,     0.00     -0.462581
"Line.L_2043_2044"              0.00679,     0.01     -1.00146
"Line.L_2044_2045"              0.00056,      0.0     -0.315673
"Line.L_2045_2046"              0.00008,      0.0     -0.322852
"Line.L_2045_2047"              0.00009,      0.0     -0.184879
"Line.L_2047_2048"              0.00002,      0.0     -0.253417
"Line.L_2044_2049"              0.00056,      0.0     -0.381438
"Line.L_2049_2050"              0.00043,      0.0     -0.363869
"Line.L_2050_2051"              0.00040,      0.0     -0.407916
"Line.L_2051_2052"              0.00028,      0.0     -0.39328
"Line.L_2044_2053"              0.00215,     0.00     -1.36133
"Line.L_2053_2054"              0.00021,      0.0     -0.407968
"Line.L_2054_2055"              0.00007,      0.0     -0.457937
"Line.L_2055_2056"              0.00003,      0.0     -0.598869
"Line.L_2053_2057"              0.00122,     0.00     -2.23353
"Line.L_2057_2058"              0.00050,      0.0     -1.19455
"Line.L_2057_2059"              0.00008,      0.0     -2.01079
"Line.L_2059_2060"              0.00001,      0.0     -0.892392
"Line.L_3001_3003"              0.80780,     0.11     -8.81234
"Line.L_3003_3002"              0.00004,      0.0     -0.249576
"Line.L_3003_3004"              0.00000,      0.0     -0.237847
"Line.L_3003_3005"              0.66045,     0.09     -7.63682
"Line.L_3005_3006"              0.00003,      0.0     -0.014856
"Line.L_3006_3007"              0.00002,      0.0     -0.0177054
"Line.L_3005_3008"              0.03188,     0.00     0.0494172
"Line.L_3008_3009"              0.00026,      0.0     -0.00185386
"Line.L_3009_3010"              0.00035,      0.0     -0.00419964
"Line.L_3010_3011"              0.00013,      0.0     -0.00334906
"Line.L_3011_3012"              0.00002,      0.0     -0.00407766
"Line.L_3008_3013"              0.00002,      0.0     -0.00221978
"Line.L_3013_3014"              0.00001,      0.0     -0.00387725
"Line.L_3008_3015"              0.06942,     0.01     0.106255
"Line.L_3015_3016"              0.00018,      0.0     -0.00258717
"Line.L_3016_3017"              0.00007,      0.0     -0.00334331
"Line.L_3015_3018"              0.00044,      0.0     -0.00194095
"Line.L_3018_3019"              0.00042,      0.0     -0.0032758
"Line.L_3019_3020"              0.00024,      0.0     -0.00379567
"Line.L_3020_3021"              0.00008,      0.0     -0.00390965
"Line.L_3015_3022"              0.05593,     0.01     0.0844031
"Line.L_3022_3023"              0.00017,      0.0     -0.00220176
"Line.L_3023_3024"              0.00016,      0.0     -0.00403156
"Line.L_3024_3025"              0.00005,      0.0     -0.0042885
"Line.L_3022_3026"              0.00060,      0.0     -0.00154614
"Line.L_3026_3027"              0.00062,      0.0     -0.00419956
"Line.L_3027_3028"              0.00019,      0.0     -0.00297188
"Line.L_3028_3029"              0.00001,      0.0     -0.00414974
"Line.L_3022_3030"              0.04905,     0.01     0.0712126
"Line.L_3030_3035"              0.00068,      0.0     -0.00364868
"Line.L_3035_3036"              0.00157,     0.00     -0.00997952
"Line.L_3036_3037"              0.00075,      0.0     -0.00507076
"Line.L_3037_3038"              0.00128,     0.00     -0.00959493
"Line.L_3038_3039"              0.00112,     0.00     -0.00908315
"Line.L_3039_3053"              0.00119,     0.00     -0.0102739
"Line.L_3053_3054"              0.00000,      0.0     -0.819893
"Line.L_3053_3055"              0.01610,     0.03     -1.29347
"Line.L_3055_3056"              0.00028,      0.0     -0.12488
"Line.L_3056_3057"              0.00026,      0.0     -0.173752
"Line.L_3057_3058"              0.00015,      0.0     -0.173823
"Line.L_3058_3059"              0.00013,      0.0     -0.267642
"Line.L_3059_3060"              0.00001,      0.0     -0.0752307
"Line.L_3060_3061"              0.00000,      0.0     -0.179787
"Line.L_3055_3062"              0.00178,     0.01     -0.431597
"Line.L_3062_3063"              0.00075,      0.0     -0.192919
"Line.L_3063_3064"              0.00034,      0.0     -0.153149
"Line.L_3064_3065"              0.00017,      0.0     -0.200161
"Line.L_3065_3066"              0.00006,      0.0     -0.120123
"Line.L_3066_3067"              0.00006,      0.0     -0.267642
"Line.L_3030_3040"              0.00085,      0.0     -0.0143168
"Line.L_3040_3044"              0.00004,      0.0     -0.00185274
"Line.L_3044_3045"              0.00003,      0.0     -0.00513914
"Line.L_3040_3041"              0.00017,      0.0     -0.00141796
"Line.L_3041_3042"              0.00025,      0.0     -0.00406062
"Line.L_3042_3043"              0.00007,      0.0     -0.00542329
"Line.L_3040_3046"              0.00011,      0.0     -0.0155672
"Line.L_3046_3047"              0.00001,      0.0     -0.0104695
"Line.L_3046_3048"              0.00002,      0.0     -0.00619858
"Line.L_3048_3049"              0.00002,      0.0     -0.0107906
"Line.L_3049_3050"              0.00001,      0.0     -0.00797954
"Line.L_3050_3051"              0.00001,      0.0     -0.0172181
"Line.L_3051_3052"              0.00001,      0.0     -0.0139751
"Line.L_3030_3031"              0.02471,     0.01     0.0321028
"Line.L_3031_3032"              0.02509,     0.01     0.0324021
"Line.L_3032_3033"              0.03785,     0.01     0.0484731
"Line.L_3033_3034"              0.02405,     0.01     0.0303344
"Line.L_3034_3068"              0.01505,     0.00     0.0188329
"Line.L_3068_3069"              0.00002,      0.0     -0.0157096
"Line.L_3069_3070"              0.00000,      0.0     -0.313148
"Line.L_3070_3071"              0.00000,      0.0     -0.412652
"Line.L_3071_3072"              0.00000,      0.0     -0.263395
"Line.L_3069_3073"              0.00000,      0.0     -0.000956412
"Line.L_3073_3074"              0.00000,      0.0     -0.0162675
"Line.L_3068_3075"              0.01638,     0.00     0.0200717
"Line.L_3076_3077"              0.00089,      0.0     -0.0404251
"Line.L_3077_3078"              0.00000,      0.0     -0.00382763
"Line.L_3076_3079"              0.01352,     0.00     0.0149561
"Line.L_3079_3080"              0.04458,     0.01     0.0504518
"Line.L_3080_3081"              0.00000,      0.0     -0.00932953
"Line.L_3080_3082"              0.03956,     0.01     0.0446024
"Line.L_3082_3083"              0.00074,      0.0     -0.120991
"Line.L_3083_3084"              0.00092,     0.00     -0.18988
"Line.L_3084_3085"              0.00207,     0.01     -0.499107
"Line.L_3085_3086"              0.00079,      0.0     -0.327944
"Line.L_3086_3087"              0.00044,      0.0     -0.231958
"Line.L_3087_3088"              0.00047,      0.0     -0.40782
"Line.L_3088_3089"              0.00002,      0.0     -0.108821
"Line.L_3089_3090"              0.00009,      0.0     -0.548973
"Line.L_3090_3091"              0.00001,      0.0     -0.215719
"Line.L_3082_3092"              0.00179,     0.00     -0.5403
"Line.L_3092_3093"              0.00092,     0.00     -0.222935
"Line.L_3093_3094"              0.00035,      0.0     -0.12126
"Line.L_3094_3095"              0.00014,      0.0     -0.0630853
"Line.L_3095_3096"              0.00031,      0.0     -0.287503
"Line.L_3096_3097"              0.00008,      0.0     -0.113669
"Line.L_3092_3098"              0.00017,      0.0     -0.277634
"Line.L_3098_3099"              0.00004,      0.0     -0.359879
"Line.L_3092_3100"              0.00075,      0.0     -0.265782
"Line.L_3100_3101"              0.00025,      0.0     -0.152769
"Line.L_3101_3102"              0.00027,      0.0     -0.218997
"Line.L_3102_3103"              0.00003,      0.0     -0.130513
"Line.L_3100_3104"              0.00056,      0.0     -0.216846
"Line.L_3104_3105"              0.00011,      0.0     -0.116823
"Line.L_3105_3106"              0.00010,      0.0     -0.176251
"Line.L_3082_3107"              0.06733,     0.03     -5.83595
"Line.L_3107_3108"              0.00485,     0.01     -0.449197
"Line.L_3108_3109"              0.00129,     0.00     -0.13117
"Line.L_3109_3110"              0.00063,      0.0     -0.147179
"Line.L_3110_3111"              0.00051,      0.0     -0.267686
"Line.L_3111_3112"              0.00014,      0.0     -0.318438
"Line.L_3107_3113"              0.00073,      0.0     -0.239021
"Line.L_3113_3114"              0.00013,      0.0     -0.145585
"Line.L_3114_3115"              0.00010,      0.0     -0.32354
"Line.L_3113_3116"              0.00030,      0.0     -0.445608
"Line.L_3116_3117"              0.00001,      0.0     -0.10949
"Line.L_3107_3118"              0.02975,     0.03     -9.10253
"Line.L_3118_3119"              0.00485,     0.01     -0.449897
"Line.L_3119_3120"              0.00019,      0.0     -0.341819
"Line.L_3120_3121"              0.00006,      0.0     -0.20122
"Line.L_3121_3122"              0.00002,      0.0     -0.172911
"Line.L_3119_3123"              0.00057,      0.0     -0.0884954
"Line.L_3123_3124"              0.00030,      0.0     -0.0652405
"Line.L_3124_3125"              0.00053,      0.0     -0.147137
"Line.L_3125_3126"              0.00114,     0.00     -0.334249
"Line.L_3126_3127"              0.00043,      0.0     -0.228261
"Line.L_3127_3128"              0.00020,      0.0     -0.232323
"Line.L_3128_3129"              0.00011,      0.0     -0.237271
"Line.L_3129_3130"              0.00006,      0.0     -0.2246
"Line.L_3130_3131"              0.00001,      0.0     -0.18947
"Line.L_3118_3132"              0.00845,     0.01     -0.48023
"Line.L_3132_3133"              0.00152,     0.00     -0.139627
"Line.L_3133_3134"              0.00076,      0.0     -0.272151
"Line.L_3134_3135"              0.00037,      0.0     -0.23263
"Line.L_3135_3136"              0.00019,      0.0     -0.355976
"Line.L_3133_3137"              0.00065,      0.0     -0.244085
"Line.L_3137_3138"              0.00014,      0.0     -0.34051
"Line.L_3138_3139"              0.00000,      0.0     -0.280442
"Line.L_3107_3140"              0.01261,     0.01     -0.239162
"Line.L_3140_3141"              0.00019,      0.0     -0.130304
"Line.L_3141_3142"              0.00014,      0.0     -0.18777
"Line.L_3142_3143"              0.00006,      0.0     -0.196581
"Line.L_3140_3148"              0.00074,      0.0     -0.142562
"Line.L_3148_3149"              0.00056,      0.0     -0.245862
"Line.L_3149_3150"              0.00025,      0.0     -0.135114
"Line.L_3150_3151"              0.00021,      0.0     -0.151686
"Line.L_3151_3152"              0.00028,      0.0     -0.25285
"Line.L_3152_3153"              0.00011,      0.0     -0.135201
"Line.L_3153_3154"              0.00002,      0.0     -0.115797
"Line.L_3154_3155"              0.00001,      0.0     -0.491472
"Line.L_3140_3156"              0.00415,     0.01     -0.307507
"Line.L_3156_3144"              0.00011,      0.0     -0.118663
"Line.L_3144_3145"              0.00014,      0.0     -0.173135
"Line.L_3145_3146"              0.00010,      0.0     -0.173159
"Line.L_3146_3147"              0.00007,      0.0     -0.173177
"Line.L_3156_3157"              0.00111,     0.00     -0.148107
"Line.L_3157_3158"              0.00113,     0.00     -0.286266
"Line.L_3158_3159"              0.00058,      0.0     -0.249668
"Line.L_3159_3160"              0.00014,      0.0     -0.236348
"Line.L_3160_3161"              0.00005,      0.0     -0.230571
"Line.L_3161_3162"              0.00001,      0.0     -0.171241
"Line.CB_101"                   0.00000,      0.0     0
"Line.CB_102"                   0.00000,      0.0     0
"Line.CB_201"                   0.00000,      0.0     -1.81899E-015
"Line.CB_202"                   0.00000,      0.0     1.54614E-014
"Line.CB_203"                   0.00000,      0.0     2.72848E-015
"Line.CB_204"                   0.00000,      0.0     0
"Line.CB_301"                   0.00000,      0.0     2.18279E-014
"Line.CB_302"                   0.00000,      0.0     2.54659E-014
"Line.CB_303"                   0.00000,      0.0     0
"Capacitor.CAP_201"             0.00000,      0.0     -51.9538
"Capacitor.CAP_301"             0.00000,      0.0     -51.7608

LINE LOSSES=                         2.4 kW
TRANSFORMER LOSSES=                  5.2 kW

TOTAL LOSSES=                        7.6 kW

TOTAL LOAD POWER =                1176.5 kW
Percent Losses for Circuit =      0.65 %
