OpenDSS Model (08.13.2020)/240_bus_test_system_VLL.Txt

SYMMETRICAL COMPONENT PHASE-PHASE VOLTAGES BY BUS (for 3-phase buses)

Bus            Mag:   V1 (kV)    p.u.     V2 (kV)   %V2/V1    V0 (kV)    %V0/V1

eq_source_bus     68.89     0.9984       0.01    0.01452 1.029E-014 1.494E-014
bus_xfmr          13.74     0.9955   0.007278    0.05298 1.875E-015 1.365E-014
bus1              14.08       1.02   0.007468    0.05304 1.364E-015 9.688E-015
bus1003           14.08       1.02   0.007678    0.05454 2.449E-015 1.739E-014
t_bus1003_l      0.2113      1.016  0.0001158     0.0548 2.842E-017 1.345E-014
bus1004           14.08       1.02   0.007716    0.05481 1.819E-015 1.292E-014
t_bus1004_l      0.2116      1.017  0.0001162    0.05491 2.247E-017 1.062E-014
bus1005           14.08       1.02   0.007739    0.05497 1.875E-015 1.332E-014
t_bus1005_l      0.2118      1.018  0.0001166    0.05504 2.247E-017 1.061E-014
bus1006           14.08       1.02   0.007801    0.05542 1.819E-015 1.292E-014
t_bus1006_l      0.1222     0.5876          0          0         0         0
bus1007           8.124     0.5887          0          0         0         0
t_bus1007_l      0.1216     0.5844          0          0         0         0
bus1008           14.08       1.02   0.007791    0.05535 2.274E-015 1.615E-014
t_bus1008_l        0.21       1.01   0.000117    0.05568 2.247E-017 1.07E-014
bus1009           14.08       1.02   0.007766    0.05517 1.875E-015 1.332E-014
t_bus1009_l      0.2108      1.013  0.0001168    0.05542 2.247E-017 1.066E-014
bus1010           14.08       1.02   0.007766    0.05517 1.819E-015 1.292E-014
t_bus1010_l      0.2111      1.015  0.0001168    0.05534 2.842E-017 1.346E-014
bus1011           14.08       1.02   0.007764    0.05516 2.274E-015 1.615E-014
t_bus1011_l      0.1221     0.5869          0          0         0         0
bus1012           14.08       1.02    0.00776    0.05513 2.319E-015 1.647E-014
t_bus1012_l      0.1222     0.5877          0          0         0         0
bus1013           14.08       1.02   0.007733    0.05494 1.438E-015 1.022E-014
t_bus1013_l       0.212      1.019  0.0001165    0.05497 2.842E-017 1.341E-014
bus1014           8.129      0.589          0          0         0         0
t_bus1014_l      0.1224     0.5884          0          0         0         0
bus1015           8.129      0.589          0          0         0         0
t_bus1015_l      0.1224     0.5883          0          0         0         0
bus1016           8.129      0.589          0          0         0         0
t_bus1016_l      0.1223     0.5879          0          0         0         0
bus1017           8.129      0.589          0          0         0         0
t_bus1017_l      0.1223      0.588          0          0         0         0
bus2002           14.08       1.02   0.007486    0.05318 2.319E-015 1.647E-014
t_bus2002_l       0.212      1.019  0.0001128    0.05322 2.93E-017 1.382E-014
bus2003           14.07       1.02   0.007403     0.0526 1.875E-015 1.332E-014
t_bus2003_l      0.2111      1.015  0.0001115    0.05283 2.842E-017 1.347E-014
bus2005           14.07       1.02   0.007337    0.05214 1.819E-015 1.293E-014
t_bus2005_l      0.2108      1.013  0.0001105     0.0524 3.623E-017 1.719E-014
bus2008           8.121     0.5885          0          0         0         0
t_bus2008_l      0.1221      0.587          0          0         0         0
bus2009           8.121     0.5885          0          0         0         0
t_bus2009_l      0.1222     0.5874          0          0         0         0
bus2010           14.07       1.02   0.007312    0.05196 1.364E-015 9.695E-015
t_bus2010_l      0.2118      1.018  0.0001102    0.05203 2.842E-017 1.342E-014
bus2011           14.07       1.02   0.007285    0.05178 1.875E-015 1.333E-014
t_bus2011_l      0.2113      1.016  0.0001098    0.05194 2.842E-017 1.345E-014
bus2014           14.07       1.02   0.007222    0.05133 1.438E-015 1.022E-014
t_bus2014_l      0.1222     0.5875          0          0         0         0
bus2015           8.123     0.5886          0          0         0         0
t_bus2015_l      0.1222     0.5875          0          0         0         0
bus2016           14.07       1.02   0.007213    0.05126 1.438E-015 1.022E-014
t_bus2016_l      0.1222     0.5875          0          0         0         0
bus2017           14.07       1.02   0.007222    0.05133 1.875E-015 1.333E-014
t_bus2017_l      0.1218     0.5856          0          0         0         0
bus2018           14.07       1.02   0.007229    0.05138 1.438E-015 1.022E-014
t_bus2018_l      0.1221      0.587          0          0         0         0
bus2020           8.123     0.5886          0          0         0         0
t_bus2020_l      0.1221     0.5868          0          0         0         0
bus2022           8.126     0.5888          0          0         0         0
t_bus2022_l      0.1221      0.587          0          0         0         0
bus2023           8.126     0.5888          0          0         0         0
t_bus2023_l      0.1223     0.5878          0          0         0         0
bus2024           8.126     0.5888          0          0         0         0
t_bus2024_l      0.1222     0.5874          0          0         0         0
bus2025           8.126     0.5888          0          0         0         0
t_bus2025_l      0.1221     0.5871          0          0         0         0
bus2028           14.07      1.019   0.007259     0.0516 1.364E-015 9.697E-015
t_bus2028_l      0.1223     0.5879          0          0         0         0
bus2029           14.07      1.019   0.007263    0.05163 1.875E-015 1.333E-014
t_bus2029_l      0.2114      1.016  0.0001095     0.0518 2.132E-017 1.009E-014
bus2030           14.07      1.019   0.007269    0.05167 1.875E-015 1.333E-014
t_bus2030_l      0.2116      1.017  0.0001095    0.05177 2.132E-017 1.007E-014
bus2031           14.07      1.019   0.007277    0.05173 1.438E-015 1.022E-014
t_bus2031_l      0.1219     0.5862          0          0         0         0
bus2032           14.07      1.019   0.007249    0.05153 1.875E-015 1.333E-014
t_bus2032_l      0.2117      1.018  0.0001092     0.0516 3.623E-017 1.711E-014
bus2034           14.07      1.019   0.007249    0.05153 1.438E-015 1.022E-014
t_bus2034_l      0.2115      1.017  0.0001092    0.05165 2.93E-017 1.385E-014
bus2035           14.07      1.019   0.007249    0.05153 2.319E-015 1.648E-014
t_bus2035_l      0.2117      1.018  0.0001093    0.05161 2.132E-017 1.007E-014
bus2037           14.07      1.019   0.007249    0.05153 2.274E-015 1.616E-014
t_bus2037_l      0.2115      1.017  0.0001093    0.05166 3.623E-017 1.713E-014
bus2040           14.07      1.019   0.007249    0.05154 1.819E-015 1.293E-014
t_bus2040_l      0.2102      1.011  0.0001096    0.05214 2.93E-017 1.393E-014
bus2041           14.07      1.019   0.007249    0.05154 1.438E-015 1.022E-014
t_bus2041_l      0.2117      1.018  0.0001093     0.0516 2.93E-017 1.384E-014
bus2042           14.07      1.019   0.007252    0.05156 1.438E-015 1.022E-014
t_bus2042_l      0.2116      1.017  0.0001093    0.05165 2.247E-017 1.062E-014
bus2043           14.06      1.019   0.007264    0.05165 2.319E-015 1.649E-014
t_bus2043_l      0.2115      1.017  0.0001095    0.05178 2.132E-017 1.008E-014
bus2045            8.12     0.5884          0          0         0         0
t_bus2045_l      0.1219     0.5863          0          0         0         0
bus2046           8.119     0.5884          0          0         0         0
t_bus2046_l       0.122     0.5865          0          0         0         0
bus2047           8.119     0.5884          0          0         0         0
t_bus2047_l      0.1221     0.5869          0          0         0         0
bus2048           8.119     0.5884          0          0         0         0
t_bus2048_l      0.1221     0.5871          0          0         0         0
bus2049           14.06      1.019   0.007262    0.05163 1.438E-015 1.022E-014
t_bus2049_l      0.1221     0.5872          0          0         0         0
bus2050           14.06      1.019   0.007241    0.05149 1.819E-015 1.293E-014
t_bus2050_l      0.1222     0.5874          0          0         0         0
bus2051           14.06      1.019   0.007227    0.05139 2.274E-015 1.617E-014
t_bus2051_l       0.122     0.5865          0          0         0         0
bus2052           14.06      1.019   0.007227    0.05139 1.875E-015 1.333E-014
t_bus2052_l      0.2104      1.012  0.0001091    0.05184 2.842E-017 1.351E-014
bus2053           14.06      1.019   0.007384    0.05251 1.364E-015  9.7E-015
t_bus2053_l      0.2118      1.018  0.0001113    0.05256 2.132E-017 1.006E-014
bus2054           14.06      1.019   0.007408    0.05267 1.438E-015 1.023E-014
t_bus2054_l      0.1218     0.5854          0          0         0         0
bus2055           14.06      1.019   0.007423    0.05278 2.319E-015 1.649E-014
t_bus2055_l      0.1221     0.5869          0          0         0         0
bus2056           14.06      1.019   0.007433    0.05285 1.819E-015 1.293E-014
t_bus2056_l      0.1218     0.5854          0          0         0         0
bus2058           14.06      1.019    0.00741    0.05269 1.364E-015 9.701E-015
t_bus2058_l      0.2112      1.016  0.0001118    0.05295 3.553E-017 1.682E-014
bus2059           14.06      1.019   0.007434    0.05286 2.449E-015 1.741E-014
t_bus2059_l       0.122     0.5865          0          0         0         0
bus2060           14.06      1.019   0.007438    0.05289 9.095E-016 6.467E-015
t_bus2060_l      0.1221      0.587          0          0         0         0
bus3002           14.07      1.019   0.008373    0.05953 1.875E-015 1.333E-014
t_bus3002_l      0.2092      1.006  0.0001265    0.06047 2.93E-017 1.401E-014
bus3004           14.07      1.019   0.008373    0.05953 1.438E-015 1.022E-014
t_bus3004_l      0.2115      1.017  0.0001262    0.05967 2.132E-017 1.008E-014
bus3006           14.05      1.018   0.009294    0.06614 1.875E-015 1.334E-014
t_bus3006_l      0.2112      1.015  0.0001402    0.06641 2.842E-017 1.346E-014
bus3007           14.05      1.018   0.009294    0.06614 1.875E-015 1.334E-014
t_bus3007_l       0.211      1.014  0.0001404    0.06653 3.178E-017 1.506E-014
bus3009           8.103     0.5872          0          0         0         0
t_bus3009_l      0.1218     0.5856          0          0         0         0
bus3010           8.103     0.5872          0          0         0         0
t_bus3010_l      0.1217     0.5853          0          0         0         0
bus3011           8.103     0.5871          0          0         0         0
t_bus3011_l      0.1216     0.5847          0          0         0         0
bus3012           8.103     0.5871          0          0         0         0
t_bus3012_l      0.1219     0.5859          0          0         0         0
bus3013            8.12     0.5884          0          0         0         0
t_bus3013_l      0.1221     0.5869          0          0         0         0
bus3014            8.12     0.5884          0          0         0         0
t_bus3014_l      0.1221     0.5871          0          0         0         0
bus3016            8.12     0.5884          0          0         0         0
t_bus3016_l      0.1219      0.586          0          0         0         0
bus3017            8.12     0.5884          0          0         0         0
t_bus3017_l      0.1221     0.5871          0          0         0         0
bus3018           8.112     0.5879          0          0         0         0
t_bus3018_l      0.1219     0.5859          0          0         0         0
bus3019           8.112     0.5878          0          0         0         0
t_bus3019_l      0.1219     0.5859          0          0         0         0
bus3020           8.112     0.5878          0          0         0         0
t_bus3020_l       0.122     0.5866          0          0         0         0
bus3021           8.112     0.5878          0          0         0         0
t_bus3021_l      0.1217      0.585          0          0         0         0
bus3023           8.101      0.587          0          0         0         0
t_bus3023_l      0.1219     0.5859          0          0         0         0
bus3024           8.101      0.587          0          0         0         0
t_bus3024_l      0.1217     0.5851          0          0         0         0
bus3025           8.101      0.587          0          0         0         0
t_bus3025_l      0.1217     0.5853          0          0         0         0
bus3026           8.101      0.587          0          0         0         0
t_bus3026_l      0.1215     0.5841          0          0         0         0
bus3027             8.1      0.587          0          0         0         0
t_bus3027_l      0.1219     0.5859          0          0         0         0
bus3028             8.1      0.587          0          0         0         0
t_bus3028_l      0.1217     0.5851          0          0         0         0
bus3029             8.1      0.587          0          0         0         0
t_bus3029_l      0.1218     0.5858          0          0         0         0
bus3031           14.05      1.018     0.0101    0.07193 2.319E-015 1.651E-014
t_bus3031_l      0.2111      1.015  0.0001526    0.07226 2.247E-017 1.064E-014
bus3032           14.04      1.018     0.0103    0.07331 2.319E-015 1.651E-014
t_bus3032_l      0.2108      1.014  0.0001554    0.07371 2.842E-017 1.348E-014
bus3033           14.04      1.018     0.0106    0.07546 9.095E-016 6.476E-015
t_bus3033_l      0.2103      1.011  0.0001602     0.0762 2.842E-017 1.352E-014
bus3034           14.04      1.018     0.0108    0.07689 1.364E-015 9.715E-015
t_bus3034_l      0.2111      1.015  0.0001631    0.07729 3.623E-017 1.717E-014
bus3035           14.05      1.018   0.009872    0.07028 1.875E-015 1.335E-014
t_bus3035_l      0.2102       1.01  0.0001494    0.07108 2.132E-017 1.014E-014
bus3036           14.05      1.018   0.009757    0.06946 2.319E-015 1.651E-014
t_bus3036_l      0.2112      1.015  0.0001473    0.06976 3.553E-017 1.683E-014
bus3037           14.05      1.018     0.0097    0.06905 2.319E-015 1.651E-014
t_bus3037_l      0.2106      1.013  0.0001466    0.06957 2.93E-017 1.391E-014
bus3038           14.05      1.018   0.009594    0.06831 1.875E-015 1.335E-014
t_bus3038_l      0.2109      1.014   0.000145    0.06876 2.842E-017 1.348E-014
bus3039           14.05      1.018   0.009497    0.06762 1.438E-015 1.024E-014
t_bus3039_l      0.2111      1.015  0.0001435    0.06799 3.623E-017 1.717E-014
bus3041            8.11     0.5877          0          0         0         0
t_bus3041_l       0.122     0.5863          0          0         0         0
bus3042            8.11     0.5877          0          0         0         0
t_bus3042_l      0.1218     0.5855          0          0         0         0
bus3043            8.11     0.5877          0          0         0         0
t_bus3043_l      0.1218     0.5855          0          0         0         0
bus3044            8.11     0.5877          0          0         0         0
t_bus3044_l      0.1219      0.586          0          0         0         0
bus3045            8.11     0.5877          0          0         0         0
t_bus3045_l      0.1219     0.5861          0          0         0         0
bus3047           14.05      1.018   0.009892    0.07043 1.875E-015 1.335E-014
t_bus3047_l      0.2102      1.011  0.0001496    0.07116 1.589E-017 7.557E-015
bus3048           14.05      1.018   0.009892    0.07043 1.017E-015 7.239E-015
t_bus3048_l      0.2113      1.016  0.0001493    0.07065 2.132E-017 1.009E-014
bus3049           14.05      1.018   0.009892    0.07043 1.875E-015 1.335E-014
t_bus3049_l      0.2115      1.017  0.0001492    0.07054 1.589E-017 7.513E-015
bus3050           14.05      1.018   0.009892    0.07043 1.364E-015 9.713E-015
t_bus3050_l      0.2113      1.016  0.0001492    0.07061 2.132E-017 1.009E-014
bus3051           14.05      1.018   0.009892    0.07043 1.875E-015 1.335E-014
t_bus3051_l      0.2113      1.016  0.0001492    0.07059 3.553E-017 1.681E-014
bus3052           14.05      1.018   0.009892    0.07043 1.438E-015 1.024E-014
t_bus3052_l      0.2108      1.013  0.0001493    0.07084 2.247E-017 1.066E-014
bus3054           14.05      1.018    0.00939    0.06686 1.438E-015 1.024E-014
t_bus3054_l      0.2113      1.016  0.0001417    0.06703 2.93E-017 1.386E-014
bus3056           8.114      0.588          0          0         0         0
t_bus3056_l       0.122     0.5865          0          0         0         0
bus3057           8.114      0.588          0          0         0         0
t_bus3057_l       0.122     0.5864          0          0         0         0
bus3058           8.114      0.588          0          0         0         0
t_bus3058_l       0.122     0.5866          0          0         0         0
bus3059           8.114     0.5879          0          0         0         0
t_bus3059_l      0.1219     0.5862          0          0         0         0
bus3060           8.114     0.5879          0          0         0         0
t_bus3060_l       0.122     0.5865          0          0         0         0
bus3061           8.114     0.5879          0          0         0         0
t_bus3061_l      0.1221     0.5872          0          0         0         0
bus3062           8.114     0.5879          0          0         0         0
t_bus3062_l      0.1221     0.5872          0          0         0         0
bus3063           8.113     0.5879          0          0         0         0
t_bus3063_l      0.1218     0.5857          0          0         0         0
bus3064           8.113     0.5879          0          0         0         0
t_bus3064_l      0.1218     0.5855          0          0         0         0
bus3065           8.113     0.5879          0          0         0         0
t_bus3065_l       0.122     0.5867          0          0         0         0
bus3066           8.113     0.5879          0          0         0         0
t_bus3066_l       0.122     0.5864          0          0         0         0
bus3067           8.113     0.5879          0          0         0         0
t_bus3067_l      0.1218     0.5858          0          0         0         0
bus3070           14.04      1.018    0.01093    0.07781 1.364E-015 9.715E-015
t_bus3070_l      0.2115      1.017  0.0001647    0.07788 3.178E-017 1.502E-014
bus3071           14.04      1.018    0.01093    0.07781 1.438E-015 1.024E-014
t_bus3071_l      0.2113      1.016  0.0001648    0.07797 2.247E-017 1.063E-014
bus3072           14.04      1.018    0.01093    0.07781 1.819E-015 1.295E-014
t_bus3072_l      0.2114      1.016  0.0001648    0.07797 1.589E-017 7.516E-015
bus3073           14.04      1.018    0.01093    0.07781 1.438E-015 1.024E-014
t_bus3073_l      0.2113      1.016  0.0001648    0.07797 2.842E-017 1.345E-014
bus3074           14.04      1.018    0.01093    0.07781 1.438E-015 1.024E-014
t_bus3074_l      0.2109      1.014  0.0001648    0.07816 2.247E-017 1.065E-014
bus3077           14.04      1.017    0.01107    0.07886 1.819E-015 1.295E-014
t_bus3077_l       0.211      1.014  0.0001681    0.07967 3.178E-017 1.506E-014
bus3078           14.04      1.017    0.01107    0.07886 1.875E-015 1.335E-014
t_bus3078_l       0.211      1.015   0.000167    0.07916 2.93E-017 1.388E-014
bus3081           14.04      1.017     0.0117    0.08333 1.364E-015 9.718E-015
t_bus3081_l      0.2114      1.016  0.0001764    0.08347 1.589E-017 7.516E-015
bus3083           8.093     0.5865          0          0         0         0
t_bus3083_l      0.1217     0.5851          0          0         0         0
bus3084           8.093     0.5864          0          0         0         0
t_bus3084_l      0.1218     0.5854          0          0         0         0
bus3085           8.092     0.5864          0          0         0         0
t_bus3085_l      0.1215     0.5843          0          0         0         0
bus3086           8.092     0.5864          0          0         0         0
t_bus3086_l      0.1217     0.5853          0          0         0         0
bus3087           8.092     0.5864          0          0         0         0
t_bus3087_l      0.1216     0.5847          0          0         0         0
bus3088           8.091     0.5863          0          0         0         0
t_bus3088_l      0.1215     0.5839          0          0         0         0
bus3089           8.091     0.5863          0          0         0         0
t_bus3089_l      0.1218     0.5857          0          0         0         0
bus3090           8.091     0.5863          0          0         0         0
t_bus3090_l      0.1217     0.5852          0          0         0         0
bus3091           8.091     0.5863          0          0         0         0
t_bus3091_l      0.1216     0.5848          0          0         0         0
bus3093           8.093     0.5864          0          0         0         0
t_bus3093_l      0.1216     0.5847          0          0         0         0
bus3094           8.093     0.5864          0          0         0         0
t_bus3094_l      0.1217     0.5853          0          0         0         0
bus3095           8.093     0.5864          0          0         0         0
t_bus3095_l      0.1215     0.5843          0          0         0         0
bus3096           8.093     0.5864          0          0         0         0
t_bus3096_l      0.1217     0.5852          0          0         0         0
bus3097           8.092     0.5864          0          0         0         0
t_bus3097_l      0.1212     0.5829          0          0         0         0
bus3098           8.117     0.5882          0          0         0         0
t_bus3098_l       0.122     0.5864          0          0         0         0
bus3099           8.117     0.5882          0          0         0         0
t_bus3099_l      0.1221     0.5868          0          0         0         0
bus3101           8.102     0.5871          0          0         0         0
t_bus3101_l      0.1219     0.5859          0          0         0         0
bus3102           8.101     0.5871          0          0         0         0
t_bus3102_l      0.1216     0.5845          0          0         0         0
bus3103           8.101     0.5871          0          0         0         0
t_bus3103_l      0.1217     0.5852          0          0         0         0
bus3104           8.101     0.5871          0          0         0         0
t_bus3104_l      0.1218     0.5857          0          0         0         0
bus3105           8.101     0.5871          0          0         0         0
t_bus3105_l      0.1219     0.5859          0          0         0         0
bus3106           8.101     0.5871          0          0         0         0
t_bus3106_l      0.1218     0.5855          0          0         0         0
bus3108            8.09     0.5862          0          0         0         0
t_bus3108_l      0.1217     0.5852          0          0         0         0
bus3109           8.089     0.5862          0          0         0         0
t_bus3109_l      0.1209     0.5815          0          0         0         0
bus3110           8.089     0.5862          0          0         0         0
t_bus3110_l      0.1215     0.5842          0          0         0         0
bus3111           8.089     0.5862          0          0         0         0
t_bus3111_l      0.1215     0.5839          0          0         0         0
bus3112           8.089     0.5861          0          0         0         0
t_bus3112_l      0.1215     0.5842          0          0         0         0
bus3114           8.116     0.5881          0          0         0         0
t_bus3114_l      0.1219     0.5861          0          0         0         0
bus3115           8.116     0.5881          0          0         0         0
t_bus3115_l       0.122     0.5865          0          0         0         0
bus3116           8.116     0.5881          0          0         0         0
t_bus3116_l      0.1218     0.5858          0          0         0         0
bus3117           8.116     0.5881          0          0         0         0
t_bus3117_l       0.122     0.5865          0          0         0         0
bus3120           8.113     0.5879          0          0         0         0
t_bus3120_l       0.122     0.5868          0          0         0         0
bus3121           8.113     0.5879          0          0         0         0
t_bus3121_l       0.122     0.5868          0          0         0         0
bus3122           8.113     0.5879          0          0         0         0
t_bus3122_l      0.1219     0.5862          0          0         0         0
bus3123           8.113     0.5879          0          0         0         0
t_bus3123_l      0.1219     0.5859          0          0         0         0
bus3124           8.113     0.5879          0          0         0         0
t_bus3124_l       0.122     0.5864          0          0         0         0
bus3125           8.113     0.5879          0          0         0         0
t_bus3125_l      0.1221     0.5868          0          0         0         0
bus3126           8.113     0.5879          0          0         0         0
t_bus3126_l      0.1218     0.5856          0          0         0         0
bus3127           8.112     0.5878          0          0         0         0
t_bus3127_l      0.1219      0.586          0          0         0         0
bus3128           8.112     0.5878          0          0         0         0
t_bus3128_l       0.122     0.5864          0          0         0         0
bus3129           8.112     0.5878          0          0         0         0
t_bus3129_l      0.1221     0.5869          0          0         0         0
bus3130           8.112     0.5878          0          0         0         0
t_bus3130_l       0.122     0.5865          0          0         0         0
bus3131           8.112     0.5878          0          0         0         0
t_bus3131_l       0.122     0.5863          0          0         0         0
bus3132           8.086      0.586          0          0         0         0
t_bus3132_l      0.1213     0.5831          0          0         0         0
bus3134           8.086     0.5859          0          0         0         0
t_bus3134_l      0.1216     0.5846          0          0         0         0
bus3135           8.086     0.5859          0          0         0         0
t_bus3135_l      0.1214     0.5836          0          0         0         0
bus3136           8.085     0.5859          0          0         0         0
t_bus3136_l      0.1213     0.5833          0          0         0         0
bus3137           8.086     0.5859          0          0         0         0
t_bus3137_l      0.1213     0.5832          0          0         0         0
bus3138           8.086     0.5859          0          0         0         0
t_bus3138_l      0.1214     0.5837          0          0         0         0
bus3139           8.086     0.5859          0          0         0         0
t_bus3139_l      0.1218     0.5855          0          0         0         0
bus3141           8.098     0.5868          0          0         0         0
t_bus3141_l      0.1217     0.5852          0          0         0         0
bus3142           8.098     0.5868          0          0         0         0
t_bus3142_l      0.1218     0.5854          0          0         0         0
bus3143           8.098     0.5868          0          0         0         0
t_bus3143_l      0.1215     0.5843          0          0         0         0
bus3144           8.098     0.5868          0          0         0         0
t_bus3144_l      0.1219     0.5859          0          0         0         0
bus3145           8.098     0.5868          0          0         0         0
t_bus3145_l      0.1218     0.5858          0          0         0         0
bus3146           8.097     0.5868          0          0         0         0
t_bus3146_l      0.1219     0.5858          0          0         0         0
bus3147           8.097     0.5868          0          0         0         0
t_bus3147_l      0.1214     0.5837          0          0         0         0
bus3148           8.098     0.5868          0          0         0         0
t_bus3148_l      0.1215     0.5842          0          0         0         0
bus3149           8.098     0.5868          0          0         0         0
t_bus3149_l      0.1218     0.5858          0          0         0         0
bus3150           8.098     0.5868          0          0         0         0
t_bus3150_l      0.1217     0.5853          0          0         0         0
bus3151           8.098     0.5868          0          0         0         0
t_bus3151_l      0.1218     0.5856          0          0         0         0
bus3152           8.098     0.5868          0          0         0         0
t_bus3152_l      0.1218     0.5853          0          0         0         0
bus3153           8.098     0.5868          0          0         0         0
t_bus3153_l      0.1216     0.5845          0          0         0         0
bus3154           8.097     0.5868          0          0         0         0
t_bus3154_l      0.1216     0.5846          0          0         0         0
bus3155           8.097     0.5868          0          0         0         0
t_bus3155_l      0.1218     0.5857          0          0         0         0
bus3157           8.097     0.5868          0          0         0         0
t_bus3157_l      0.1215     0.5842          0          0         0         0
bus3158           8.097     0.5867          0          0         0         0
t_bus3158_l      0.1217     0.5851          0          0         0         0
bus3159           8.097     0.5867          0          0         0         0
...