OpenDSS Model (08.13.2020)/240_bus_test_system_VLN.Txt

SYMMETRICAL COMPONENT VOLTAGES BY BUS (for 3-phase buses)

Bus            Mag:   V1 (kV)    p.u.     V2 (kV)   %V2/V1    V0 (kV)    %V0/V1

eq_source_bus     39.77     0.9984   0.005776    0.01452 2.591E-009 6.516E-009
bus_xfmr          7.932     0.9955   0.004202    0.05298  0.003194   0.04027
bus1               8.13       1.02   0.004312    0.05304  0.003279   0.04034
bus1003           8.128       1.02   0.004433    0.05454  0.003297   0.04057
t_bus1003_l       0.122      1.016  6.683E-005     0.0548 4.972E-005   0.04077
bus1004           8.128       1.02   0.004455    0.05481  0.003288   0.04046
t_bus1004_l      0.1222      1.017  6.708E-005    0.05491 4.947E-005    0.0405
bus1005           8.128       1.02   0.004468    0.05497  0.003283   0.04039
t_bus1005_l      0.1223      1.018  6.73E-005    0.05504 4.943E-005   0.04042
bus1006           8.128       1.02   0.004504    0.05542  0.003268   0.04021
t_bus1006_l      0.1222      1.018          0          0         0         0
bus1007           8.124       1.02          0          0         0         0
t_bus1007_l      0.1216      1.012          0          0         0         0
bus1008           8.127       1.02   0.004498    0.05535  0.003262   0.04013
t_bus1008_l      0.1213       1.01  6.753E-005    0.05568 4.878E-005   0.04023
bus1009           8.127       1.02   0.004484    0.05517  0.003247   0.03995
t_bus1009_l      0.1217      1.013  6.744E-005    0.05542 4.873E-005   0.04005
bus1010           8.127       1.02   0.004484    0.05517  0.003247   0.03995
t_bus1010_l      0.1219      1.015  6.746E-005    0.05534 4.876E-005      0.04
bus1011           8.127       1.02   0.004483    0.05516  0.003247   0.03995
t_bus1011_l      0.1221      1.016          0          0         0         0
bus1012           8.127       1.02    0.00448    0.05513  0.003246   0.03994
t_bus1012_l      0.1222      1.018          0          0         0         0
bus1013           8.127       1.02   0.004465    0.05494  0.003266   0.04019
t_bus1013_l      0.1224      1.019  6.727E-005    0.05497 4.92E-005    0.0402
bus1014           8.129       1.02          0          0         0         0
t_bus1014_l      0.1224      1.019          0          0         0         0
bus1015           8.129       1.02          0          0         0         0
t_bus1015_l      0.1224      1.019          0          0         0         0
bus1016           8.129       1.02          0          0         0         0
t_bus1016_l      0.1223      1.018          0          0         0         0
bus1017           8.129       1.02          0          0         0         0
t_bus1017_l      0.1223      1.018          0          0         0         0
bus2002           8.127       1.02   0.004322    0.05318   0.00285   0.03506
t_bus2002_l      0.1224      1.019  6.515E-005    0.05322 4.296E-005    0.0351
bus2003           8.126       1.02   0.004274     0.0526  0.002443   0.03006
t_bus2003_l      0.1219      1.015  6.438E-005    0.05283 3.674E-005   0.03015
bus2005           8.124       1.02   0.004236    0.05214  0.002113     0.026
t_bus2005_l      0.1217      1.013  6.377E-005     0.0524 3.17E-005   0.02605
bus2008           8.121      1.019          0          0         0         0
t_bus2008_l      0.1221      1.017          0          0         0         0
bus2009           8.121      1.019          0          0         0         0
t_bus2009_l      0.1222      1.017          0          0         0         0
bus2010           8.124       1.02   0.004221    0.05196  0.002015   0.02481
t_bus2010_l      0.1223      1.018  6.361E-005    0.05203 3.034E-005   0.02482
bus2011           8.124       1.02   0.004206    0.05178  0.001926   0.02371
t_bus2011_l       0.122      1.016  6.337E-005    0.05194 2.897E-005   0.02374
bus2014           8.123       1.02    0.00417    0.05133  0.001714    0.0211
t_bus2014_l      0.1222      1.018          0          0         0         0
bus2015           8.123       1.02          0          0         0         0
t_bus2015_l      0.1222      1.018          0          0         0         0
bus2016           8.123       1.02   0.004164    0.05126  0.001678   0.02066
t_bus2016_l      0.1222      1.018          0          0         0         0
bus2017           8.123       1.02    0.00417    0.05133  0.001641    0.0202
t_bus2017_l      0.1218      1.014          0          0         0         0
bus2018           8.123       1.02   0.004174    0.05138  0.001609   0.01981
t_bus2018_l      0.1221      1.017          0          0         0         0
bus2020           8.123       1.02          0          0         0         0
t_bus2020_l      0.1221      1.016          0          0         0         0
bus2022           8.126       1.02          0          0         0         0
t_bus2022_l      0.1221      1.017          0          0         0         0
bus2023           8.126       1.02          0          0         0         0
t_bus2023_l      0.1223      1.018          0          0         0         0
bus2024           8.126       1.02          0          0         0         0
t_bus2024_l      0.1222      1.017          0          0         0         0
bus2025           8.126       1.02          0          0         0         0
t_bus2025_l      0.1221      1.017          0          0         0         0
bus2028           8.122      1.019   0.004191     0.0516  0.001766   0.02175
t_bus2028_l      0.1223      1.018          0          0         0         0
bus2029           8.122      1.019   0.004194    0.05163  0.001772   0.02182
t_bus2029_l       0.122      1.016  6.322E-005     0.0518 2.673E-005    0.0219
bus2030           8.122      1.019   0.004197    0.05167  0.001779   0.02191
t_bus2030_l      0.1222      1.017  6.325E-005    0.05177 2.68E-005   0.02194
bus2031           8.122      1.019   0.004202    0.05173   0.00179   0.02204
t_bus2031_l      0.1219      1.015          0          0         0         0
bus2032           8.122      1.019   0.004185    0.05153  0.001744   0.02147
t_bus2032_l      0.1222      1.018  6.307E-005     0.0516 2.625E-005   0.02148
bus2034           8.122      1.019   0.004185    0.05153  0.001724   0.02123
t_bus2034_l      0.1221      1.017  6.307E-005    0.05165 2.595E-005   0.02125
bus2035           8.122      1.019   0.004185    0.05153  0.001714   0.02111
t_bus2035_l      0.1222      1.018  6.308E-005    0.05161 2.583E-005   0.02114
bus2037           8.122      1.019   0.004185    0.05153    0.0017   0.02093
t_bus2037_l      0.1221      1.017  6.308E-005    0.05166 2.561E-005   0.02098
bus2040           8.121      1.019   0.004185    0.05154  0.001652   0.02035
t_bus2040_l      0.1214      1.011  6.329E-005    0.05214 2.541E-005   0.02093
bus2041           8.121      1.019   0.004185    0.05154  0.001652   0.02035
t_bus2041_l      0.1223      1.018  6.309E-005     0.0516 2.492E-005   0.02038
bus2042           8.121      1.019   0.004187    0.05156  0.001646   0.02026
t_bus2042_l      0.1222      1.017  6.311E-005    0.05165 2.48E-005    0.0203
bus2043            8.12      1.019   0.004194    0.05165  0.001615   0.01989
t_bus2043_l      0.1221      1.017  6.323E-005    0.05178 2.438E-005   0.01997
bus2045            8.12      1.019          0          0         0         0
t_bus2045_l      0.1219      1.015          0          0         0         0
bus2046           8.119      1.019          0          0         0         0
t_bus2046_l       0.122      1.016          0          0         0         0
bus2047           8.119      1.019          0          0         0         0
t_bus2047_l      0.1221      1.017          0          0         0         0
bus2048           8.119      1.019          0          0         0         0
t_bus2048_l      0.1221      1.017          0          0         0         0
bus2049            8.12      1.019   0.004192    0.05163   0.00156   0.01921
t_bus2049_l      0.1221      1.017          0          0         0         0
bus2050            8.12      1.019   0.004181    0.05149  0.001566   0.01928
t_bus2050_l      0.1222      1.017          0          0         0         0
bus2051            8.12      1.019   0.004172    0.05139  0.001572   0.01936
t_bus2051_l       0.122      1.016          0          0         0         0
bus2052            8.12      1.019   0.004172    0.05139  0.001572   0.01936
t_bus2052_l      0.1215      1.012  6.299E-005    0.05184 2.396E-005   0.01972
bus2053            8.12      1.019   0.004263    0.05251  0.001647   0.02029
t_bus2053_l      0.1223      1.018  6.427E-005    0.05256 2.487E-005   0.02034
bus2054            8.12      1.019   0.004277    0.05267  0.001695   0.02087
t_bus2054_l      0.1218      1.014          0          0         0         0
bus2055            8.12      1.019   0.004286    0.05278  0.001725   0.02124
t_bus2055_l      0.1221      1.016          0          0         0         0
bus2056            8.12      1.019   0.004292    0.05285  0.001745    0.0215
t_bus2056_l      0.1218      1.014          0          0         0         0
bus2058           8.119      1.019   0.004278    0.05269  0.001561   0.01923
t_bus2058_l       0.122      1.016  6.457E-005    0.05295 2.375E-005   0.01948
bus2059           8.119      1.019   0.004292    0.05286  0.001484   0.01827
t_bus2059_l       0.122      1.016          0          0         0         0
bus2060           8.119      1.019   0.004294    0.05289   0.00147   0.01811
t_bus2060_l      0.1221      1.017          0          0         0         0
bus3002           8.121      1.019   0.004834    0.05953  0.005551   0.06835
t_bus3002_l      0.1208      1.006  7.302E-005    0.06047 8.38E-005    0.0694
bus3004           8.121      1.019   0.004834    0.05953  0.005551   0.06835
t_bus3004_l      0.1221      1.017  7.287E-005    0.05967 8.367E-005   0.06851
bus3006           8.113      1.018   0.005366    0.06614  0.007796    0.0961
t_bus3006_l      0.1219      1.015  8.097E-005    0.06641 0.0001176   0.09643
bus3007           8.113      1.018   0.005366    0.06614  0.007797    0.0961
t_bus3007_l      0.1218      1.014  8.104E-005    0.06653 0.0001176   0.09657
bus3009           8.103      1.017          0          0         0         0
t_bus3009_l      0.1218      1.014          0          0         0         0
bus3010           8.103      1.017          0          0         0         0
t_bus3010_l      0.1217      1.014          0          0         0         0
bus3011           8.103      1.017          0          0         0         0
t_bus3011_l      0.1216      1.013          0          0         0         0
bus3012           8.103      1.017          0          0         0         0
t_bus3012_l      0.1219      1.015          0          0         0         0
bus3013            8.12      1.019          0          0         0         0
t_bus3013_l      0.1221      1.017          0          0         0         0
bus3014            8.12      1.019          0          0         0         0
t_bus3014_l      0.1221      1.017          0          0         0         0
bus3016            8.12      1.019          0          0         0         0
t_bus3016_l      0.1219      1.015          0          0         0         0
bus3017            8.12      1.019          0          0         0         0
t_bus3017_l      0.1221      1.017          0          0         0         0
bus3018           8.112      1.018          0          0         0         0
t_bus3018_l      0.1219      1.015          0          0         0         0
bus3019           8.112      1.018          0          0         0         0
t_bus3019_l      0.1219      1.015          0          0         0         0
bus3020           8.112      1.018          0          0         0         0
t_bus3020_l       0.122      1.016          0          0         0         0
bus3021           8.112      1.018          0          0         0         0
t_bus3021_l      0.1217      1.013          0          0         0         0
bus3023           8.101      1.017          0          0         0         0
t_bus3023_l      0.1219      1.015          0          0         0         0
bus3024           8.101      1.017          0          0         0         0
t_bus3024_l      0.1217      1.013          0          0         0         0
bus3025           8.101      1.017          0          0         0         0
t_bus3025_l      0.1217      1.014          0          0         0         0
bus3026           8.101      1.017          0          0         0         0
t_bus3026_l      0.1215      1.012          0          0         0         0
bus3027             8.1      1.017          0          0         0         0
t_bus3027_l      0.1219      1.015          0          0         0         0
bus3028             8.1      1.017          0          0         0         0
t_bus3028_l      0.1217      1.013          0          0         0         0
bus3029             8.1      1.017          0          0         0         0
t_bus3029_l      0.1218      1.015          0          0         0         0
bus3031           8.109      1.018   0.005833    0.07193  0.009105    0.1123
t_bus3031_l      0.1219      1.015  8.809E-005    0.07226 0.0001373    0.1127
bus3032           8.109      1.018   0.005944    0.07331   0.00942    0.1162
t_bus3032_l      0.1217      1.014  8.971E-005    0.07371 0.0001421    0.1167
bus3033           8.108      1.018   0.006118    0.07546  0.009915    0.1223
t_bus3033_l      0.1214      1.011  9.25E-005     0.0762 0.0001496    0.1233
bus3034           8.107      1.018   0.006234    0.07689   0.01025    0.1264
t_bus3034_l      0.1219      1.015  9.418E-005    0.07729 0.0001546    0.1269
bus3035            8.11      1.018   0.005699    0.07028  0.008746    0.1078
t_bus3035_l      0.1213       1.01  8.626E-005    0.07108 0.0001321    0.1088
bus3036            8.11      1.018   0.005633    0.06946  0.008598     0.106
t_bus3036_l      0.1219      1.015  8.504E-005    0.06976 0.0001297    0.1064
bus3037            8.11      1.018     0.0056    0.06905  0.008525    0.1051
t_bus3037_l      0.1216      1.013  8.461E-005    0.06957 0.0001286    0.1058
bus3038           8.109      1.018   0.005539    0.06831  0.008393    0.1035
t_bus3038_l      0.1217      1.014  8.371E-005    0.06876 0.0001266     0.104
bus3039           8.109      1.018   0.005483    0.06762  0.008273     0.102
t_bus3039_l      0.1219      1.015  8.285E-005    0.06799 0.0001248    0.1024
bus3041            8.11      1.018          0          0         0         0
t_bus3041_l       0.122      1.016          0          0         0         0
bus3042            8.11      1.018          0          0         0         0
t_bus3042_l      0.1218      1.014          0          0         0         0
bus3043            8.11      1.018          0          0         0         0
t_bus3043_l      0.1218      1.014          0          0         0         0
bus3044            8.11      1.018          0          0         0         0
t_bus3044_l      0.1219      1.015          0          0         0         0
bus3045            8.11      1.018          0          0         0         0
t_bus3045_l      0.1219      1.015          0          0         0         0
bus3047            8.11      1.018   0.005711    0.07043  0.008737    0.1077
t_bus3047_l      0.1214      1.011  8.638E-005    0.07116 0.0001319    0.1087
bus3048            8.11      1.018   0.005711    0.07043  0.008737    0.1077
t_bus3048_l       0.122      1.016  8.621E-005    0.07065 0.0001318     0.108
bus3049            8.11      1.018   0.005711    0.07043  0.008737    0.1077
t_bus3049_l      0.1221      1.017  8.612E-005    0.07054 0.0001317    0.1079
bus3050            8.11      1.018   0.005711    0.07043  0.008737    0.1077
t_bus3050_l       0.122      1.016  8.615E-005    0.07061 0.0001317     0.108
bus3051            8.11      1.018   0.005711    0.07043  0.008737    0.1077
t_bus3051_l       0.122      1.016  8.614E-005    0.07059 0.0001317     0.108
bus3052           8.109      1.018   0.005711    0.07043  0.008737    0.1077
t_bus3052_l      0.1217      1.013  8.621E-005    0.07084 0.0001318    0.1083
bus3054           8.109      1.018   0.005422    0.06686  0.008144    0.1004
t_bus3054_l       0.122      1.016  8.178E-005    0.06703 0.0001228    0.1006
bus3056           8.114      1.018          0          0         0         0
t_bus3056_l       0.122      1.016          0          0         0         0
bus3057           8.114      1.018          0          0         0         0
t_bus3057_l       0.122      1.016          0          0         0         0
bus3058           8.114      1.018          0          0         0         0
t_bus3058_l       0.122      1.016          0          0         0         0
bus3059           8.114      1.018          0          0         0         0
t_bus3059_l      0.1219      1.015          0          0         0         0
bus3060           8.114      1.018          0          0         0         0
t_bus3060_l       0.122      1.016          0          0         0         0
bus3061           8.114      1.018          0          0         0         0
t_bus3061_l      0.1221      1.017          0          0         0         0
bus3062           8.114      1.018          0          0         0         0
t_bus3062_l      0.1221      1.017          0          0         0         0
bus3063           8.113      1.018          0          0         0         0
t_bus3063_l      0.1218      1.014          0          0         0         0
bus3064           8.113      1.018          0          0         0         0
t_bus3064_l      0.1218      1.014          0          0         0         0
bus3065           8.113      1.018          0          0         0         0
t_bus3065_l       0.122      1.016          0          0         0         0
bus3066           8.113      1.018          0          0         0         0
t_bus3066_l       0.122      1.016          0          0         0         0
bus3067           8.113      1.018          0          0         0         0
t_bus3067_l      0.1218      1.015          0          0         0         0
bus3070           8.107      1.018   0.006308    0.07781   0.01046     0.129
t_bus3070_l      0.1221      1.017  9.511E-005    0.07788 0.0001577    0.1291
bus3071           8.107      1.018   0.006308    0.07781   0.01046     0.129
t_bus3071_l       0.122      1.016  9.514E-005    0.07797 0.0001577    0.1293
bus3072           8.107      1.018   0.006308    0.07781   0.01046     0.129
t_bus3072_l      0.1221      1.016  9.517E-005    0.07797 0.0001577    0.1292
bus3073           8.107      1.018   0.006308    0.07781   0.01046     0.129
t_bus3073_l       0.122      1.016  9.512E-005    0.07797 0.0001577    0.1293
bus3074           8.107      1.018   0.006308    0.07781   0.01046     0.129
t_bus3074_l      0.1218      1.014  9.518E-005    0.07816 0.0001577    0.1295
bus3077           8.107      1.017   0.006393    0.07886   0.01071    0.1321
t_bus3077_l      0.1218      1.014  9.704E-005    0.07967 0.0001618    0.1328
bus3078           8.107      1.017   0.006393    0.07886   0.01071    0.1321
t_bus3078_l      0.1218      1.015  9.644E-005    0.07916 0.0001614    0.1325
bus3081           8.105      1.017   0.006754    0.08333   0.01176    0.1451
t_bus3081_l       0.122      1.016  0.0001019    0.08347 0.0001773    0.1453
bus3083           8.093      1.016          0          0         0         0
t_bus3083_l      0.1217      1.013          0          0         0         0
bus3084           8.093      1.016          0          0         0         0
t_bus3084_l      0.1218      1.014          0          0         0         0
bus3085           8.092      1.016          0          0         0         0
t_bus3085_l      0.1215      1.012          0          0         0         0
bus3086           8.092      1.016          0          0         0         0
t_bus3086_l      0.1217      1.014          0          0         0         0
bus3087           8.092      1.016          0          0         0         0
t_bus3087_l      0.1216      1.013          0          0         0         0
bus3088           8.091      1.016          0          0         0         0
t_bus3088_l      0.1215      1.011          0          0         0         0
bus3089           8.091      1.016          0          0         0         0
t_bus3089_l      0.1218      1.014          0          0         0         0
bus3090           8.091      1.016          0          0         0         0
t_bus3090_l      0.1217      1.014          0          0         0         0
bus3091           8.091      1.016          0          0         0         0
t_bus3091_l      0.1216      1.013          0          0         0         0
bus3093           8.093      1.016          0          0         0         0
t_bus3093_l      0.1216      1.013          0          0         0         0
bus3094           8.093      1.016          0          0         0         0
t_bus3094_l      0.1217      1.014          0          0         0         0
bus3095           8.093      1.016          0          0         0         0
t_bus3095_l      0.1215      1.012          0          0         0         0
bus3096           8.093      1.016          0          0         0         0
t_bus3096_l      0.1217      1.014          0          0         0         0
bus3097           8.092      1.016          0          0         0         0
t_bus3097_l      0.1212       1.01          0          0         0         0
bus3098           8.117      1.019          0          0         0         0
t_bus3098_l       0.122      1.016          0          0         0         0
bus3099           8.117      1.019          0          0         0         0
t_bus3099_l      0.1221      1.016          0          0         0         0
bus3101           8.102      1.017          0          0         0         0
t_bus3101_l      0.1219      1.015          0          0         0         0
bus3102           8.101      1.017          0          0         0         0
t_bus3102_l      0.1216      1.012          0          0         0         0
bus3103           8.101      1.017          0          0         0         0
t_bus3103_l      0.1217      1.014          0          0         0         0
bus3104           8.101      1.017          0          0         0         0
t_bus3104_l      0.1218      1.014          0          0         0         0
bus3105           8.101      1.017          0          0         0         0
t_bus3105_l      0.1219      1.015          0          0         0         0
bus3106           8.101      1.017          0          0         0         0
t_bus3106_l      0.1218      1.014          0          0         0         0
bus3108            8.09      1.015          0          0         0         0
t_bus3108_l      0.1217      1.014          0          0         0         0
bus3109           8.089      1.015          0          0         0         0
t_bus3109_l      0.1209      1.007          0          0         0         0
bus3110           8.089      1.015          0          0         0         0
t_bus3110_l      0.1215      1.012          0          0         0         0
bus3111           8.089      1.015          0          0         0         0
t_bus3111_l      0.1215      1.011          0          0         0         0
bus3112           8.089      1.015          0          0         0         0
t_bus3112_l      0.1215      1.012          0          0         0         0
bus3114           8.116      1.019          0          0         0         0
t_bus3114_l      0.1219      1.015          0          0         0         0
bus3115           8.116      1.019          0          0         0         0
t_bus3115_l       0.122      1.016          0          0         0         0
bus3116           8.116      1.019          0          0         0         0
t_bus3116_l      0.1218      1.015          0          0         0         0
bus3117           8.116      1.019          0          0         0         0
t_bus3117_l       0.122      1.016          0          0         0         0
bus3120           8.113      1.018          0          0         0         0
t_bus3120_l       0.122      1.016          0          0         0         0
bus3121           8.113      1.018          0          0         0         0
t_bus3121_l       0.122      1.016          0          0         0         0
bus3122           8.113      1.018          0          0         0         0
t_bus3122_l      0.1219      1.015          0          0         0         0
bus3123           8.113      1.018          0          0         0         0
t_bus3123_l      0.1219      1.015          0          0         0         0
bus3124           8.113      1.018          0          0         0         0
t_bus3124_l       0.122      1.016          0          0         0         0
bus3125           8.113      1.018          0          0         0         0
t_bus3125_l      0.1221      1.016          0          0         0         0
bus3126           8.113      1.018          0          0         0         0
t_bus3126_l      0.1218      1.014          0          0         0         0
bus3127           8.112      1.018          0          0         0         0
t_bus3127_l      0.1219      1.015          0          0         0         0
bus3128           8.112      1.018          0          0         0         0
t_bus3128_l       0.122      1.016          0          0         0         0
bus3129           8.112      1.018          0          0         0         0
t_bus3129_l      0.1221      1.016          0          0         0         0
bus3130           8.112      1.018          0          0         0         0
t_bus3130_l       0.122      1.016          0          0         0         0
bus3131           8.112      1.018          0          0         0         0
t_bus3131_l       0.122      1.016          0          0         0         0
bus3132           8.086      1.015          0          0         0         0
t_bus3132_l      0.1213       1.01          0          0         0         0
bus3134           8.086      1.015          0          0         0         0
t_bus3134_l      0.1216      1.012          0          0         0         0
bus3135           8.086      1.015          0          0         0         0
t_bus3135_l      0.1214      1.011          0          0         0         0
bus3136           8.085      1.015          0          0         0         0
t_bus3136_l      0.1213       1.01          0          0         0         0
bus3137           8.086      1.015          0          0         0         0
t_bus3137_l      0.1213       1.01          0          0         0         0
bus3138           8.086      1.015          0          0         0         0
t_bus3138_l      0.1214      1.011          0          0         0         0
bus3139           8.086      1.015          0          0         0         0
t_bus3139_l      0.1218      1.014          0          0         0         0
bus3141           8.098      1.016          0          0         0         0
t_bus3141_l      0.1217      1.014          0          0         0         0
bus3142           8.098      1.016          0          0         0         0
t_bus3142_l      0.1218      1.014          0          0         0         0
bus3143           8.098      1.016          0          0         0         0
t_bus3143_l      0.1215      1.012          0          0         0         0
bus3144           8.098      1.016          0          0         0         0
t_bus3144_l      0.1219      1.015          0          0         0         0
bus3145           8.098      1.016          0          0         0         0
t_bus3145_l      0.1218      1.015          0          0         0         0
bus3146           8.097      1.016          0          0         0         0
t_bus3146_l      0.1219      1.015          0          0         0         0
bus3147           8.097      1.016          0          0         0         0
t_bus3147_l      0.1214      1.011          0          0         0         0
bus3148           8.098      1.016          0          0         0         0
t_bus3148_l      0.1215      1.012          0          0         0         0
bus3149           8.098      1.016          0          0         0         0
t_bus3149_l      0.1218      1.015          0          0         0         0
bus3150           8.098      1.016          0          0         0         0
t_bus3150_l      0.1217      1.014          0          0         0         0
bus3151           8.098      1.016          0          0         0         0
t_bus3151_l      0.1218      1.014          0          0         0         0
bus3152           8.098      1.016          0          0         0         0
t_bus3152_l      0.1218      1.014          0          0         0         0
bus3153           8.098      1.016          0          0         0         0
t_bus3153_l      0.1216      1.012          0          0         0         0
bus3154           8.097      1.016          0          0         0         0
t_bus3154_l      0.1216      1.012          0          0         0         0
bus3155           8.097      1.016          0          0         0         0
t_bus3155_l      0.1218      1.014          0          0         0         0
bus3157           8.097      1.016          0          0         0         0
t_bus3157_l      0.1215      1.012          0          0         0         0
bus3158           8.097      1.016          0          0         0         0
t_bus3158_l      0.1217      1.013          0          0         0         0
bus3159           8.097      1.016          0          0         0         0
t_bus3159_l      0.1215      1.012          0          0         0         0
bus3160           8.097      1.016          0          0         0         0
...